
*** ChampSim Multicore Out-of-Order Simulator ***

Warmup Instructions: 25000000
Simulation Instructions: 25000000
Number of CPUs: 1
Off-chip DRAM Size: 4 GiB Channels: 1 Width: 64-bit Data Rate: 3200 MT/s

VirtualMemory physical capacity: 8588881920 num_ppages: 2096895
VirtualMemory page size: 4096 log2_page_size: 12

CPU 0 runs /home/ravi/ACA/pa2-race-of-prefetchers-random/Traces/602.gcc_s-1850B.champsimtrace.xz
CPU 0 Bimodal branch predictor
Basic BTB sets: 1024 ways: 8 indirect buffer size: 4096 RAS size: 64
cpu0_L2C IP-based stride prefetcher
WARNING: The extended signature CACHE::prefetch_line(ip, base_addr, pf_addr, fill_this_level, prefetch_metadata) is deprecated.
WARNING: Use CACHE::prefetch_line(pf_addr, fill_this_level, prefetch_metadata) instead.
Heartbeat CPU 0 instructions: 10000001 cycles: 2500075 heartbeat IPC: 3.99988 cumulative IPC: 3.99988 (Simulation time: 0 hr 0 min 35 sec) 
Heartbeat CPU 0 instructions: 20000001 cycles: 5000075 heartbeat IPC: 4 cumulative IPC: 3.99994 (Simulation time: 0 hr 1 min 11 sec) 

Warmup complete CPU 0 instructions: 25000001 cycles: 6250075 (Simulation time: 0 hr 1 min 29 sec) 

Heartbeat CPU 0 instructions: 30000000 cycles: 22780509 heartbeat IPC: 0.562416 cumulative IPC: 0.302472 (Simulation time: 0 hr 2 min 6 sec) 
Heartbeat CPU 0 instructions: 40000002 cycles: 55863707 heartbeat IPC: 0.302268 cumulative IPC: 0.302336 (Simulation time: 0 hr 3 min 5 sec) 
Heartbeat CPU 0 instructions: 50000003 cycles: 88942580 heartbeat IPC: 0.302308 cumulative IPC: 0.302325 (Simulation time: 0 hr 4 min 3 sec) 
Finished CPU 0 instructions: 25000002 cycles: 82692505 cumulative IPC: 0.302325 (Simulation time: 0 hr 4 min 3 sec) 

ChampSim completed all CPUs

Region of Interest Statistics

CPU 0 cumulative IPC: 0.302325 instructions: 25000002 cycles: 82692505
cpu0_DTLB TOTAL     ACCESS:    4747946  HIT:    4739820  MISS:       8126
cpu0_DTLB LOAD      ACCESS:    3938356  HIT:    3930233  MISS:       8123
cpu0_DTLB RFO       ACCESS:     809590  HIT:     809587  MISS:          3
cpu0_DTLB PREFETCH  ACCESS:          0  HIT:          0  MISS:          0
cpu0_DTLB WRITEBACK ACCESS:          0  HIT:          0  MISS:          0
cpu0_DTLB TRANSLATION ACCESS:          0  HIT:          0  MISS:          0
cpu0_DTLB PREFETCH  REQUESTED:          0  ISSUED:          0  USEFUL:          0  USELESS:          0
cpu0_DTLB AVERAGE MISS LATENCY: 208.136 cycles
cpu0_ITLB TOTAL     ACCESS:    2857034  HIT:    2857034  MISS:          0
cpu0_ITLB LOAD      ACCESS:    2857034  HIT:    2857034  MISS:          0
cpu0_ITLB RFO       ACCESS:          0  HIT:          0  MISS:          0
cpu0_ITLB PREFETCH  ACCESS:          0  HIT:          0  MISS:          0
cpu0_ITLB WRITEBACK ACCESS:          0  HIT:          0  MISS:          0
cpu0_ITLB TRANSLATION ACCESS:          0  HIT:          0  MISS:          0
cpu0_ITLB PREFETCH  REQUESTED:          0  ISSUED:          0  USEFUL:          0  USELESS:          0
cpu0_ITLB AVERAGE MISS LATENCY: -nan cycles
cpu0_STLB TOTAL     ACCESS:       8126  HIT:        392  MISS:       7734
cpu0_STLB LOAD      ACCESS:       8123  HIT:        392  MISS:       7731
cpu0_STLB RFO       ACCESS:          3  HIT:          0  MISS:          3
cpu0_STLB PREFETCH  ACCESS:          0  HIT:          0  MISS:          0
cpu0_STLB WRITEBACK ACCESS:          0  HIT:          0  MISS:          0
cpu0_STLB TRANSLATION ACCESS:          0  HIT:          0  MISS:          0
cpu0_STLB PREFETCH  REQUESTED:          0  ISSUED:          0  USEFUL:          0  USELESS:          0
cpu0_STLB AVERAGE MISS LATENCY: 209.229 cycles
cpu0_L1D TOTAL     ACCESS:    5544322  HIT:    4941624  MISS:     602698
cpu0_L1D LOAD      ACCESS:    3378966  HIT:    2777185  MISS:     601781
cpu0_L1D RFO       ACCESS:    2157622  HIT:    2157450  MISS:        172
cpu0_L1D PREFETCH  ACCESS:          0  HIT:          0  MISS:          0
cpu0_L1D WRITEBACK ACCESS:          0  HIT:          0  MISS:          0
cpu0_L1D TRANSLATION ACCESS:       7734  HIT:       6989  MISS:        745
cpu0_L1D PREFETCH  REQUESTED:          0  ISSUED:          0  USEFUL:          0  USELESS:          0
cpu0_L1D AVERAGE MISS LATENCY: 93.9016 cycles
cpu0_L2C TOTAL     ACCESS:    2066182  HIT:    1551213  MISS:     514969
cpu0_L2C LOAD      ACCESS:     601781  HIT:     156843  MISS:     444938
cpu0_L2C RFO       ACCESS:        172  HIT:          0  MISS:        172
cpu0_L2C PREFETCH  ACCESS:    1461900  HIT:    1392191  MISS:      69709
cpu0_L2C WRITEBACK ACCESS:       1584  HIT:       1584  MISS:          0
cpu0_L2C TRANSLATION ACCESS:        745  HIT:        595  MISS:        150
cpu0_L2C PREFETCH  REQUESTED:    1486808  ISSUED:    1482844  USEFUL:      57863  USELESS:      11812
cpu0_L2C AVERAGE MISS LATENCY: 130.142 cycles
LLC TOTAL     ACCESS:     515589  HIT:       2106  MISS:     513483
LLC LOAD      ACCESS:     444938  HIT:        681  MISS:     444257
LLC RFO       ACCESS:        172  HIT:          0  MISS:        172
LLC PREFETCH  ACCESS:      69709  HIT:        725  MISS:      68984
LLC WRITEBACK ACCESS:        620  HIT:        620  MISS:          0
LLC TRANSLATION ACCESS:        150  HIT:         80  MISS:         70
LLC PREFETCH  REQUESTED:          0  ISSUED:          0  USEFUL:          0  USELESS:          0
LLC AVERAGE MISS LATENCY: 109.457 cycles

DRAM Statistics
 CHANNEL 0
 RQ ROW_BUFFER_HIT:     323470  ROW_BUFFER_MISS:     190013
 DBUS AVG_CONGESTED_CYCLE:    3.97709
 WQ ROW_BUFFER_HIT:        382  ROW_BUFFER_MISS:        246  FULL:          0


CPU 0 Branch Prediction Accuracy: 92.3646% MPKI: 19.576 Average ROB Occupancy at Mispredict: 33.4927
Branch type MPKI
BRANCH_DIRECT_JUMP: 0
BRANCH_INDIRECT: 0
BRANCH_CONDITIONAL: 19.576
BRANCH_DIRECT_CALL: 0
BRANCH_INDIRECT_CALL: 0
BRANCH_RETURN: 0

