
*** ChampSim Multicore Out-of-Order Simulator ***

Warmup Instructions: 25000000
Simulation Instructions: 25000000
Number of CPUs: 1
Off-chip DRAM Size: 4 GiB Channels: 1 Width: 64-bit Data Rate: 3200 MT/s

VirtualMemory physical capacity: 8588881920 num_ppages: 2096895
VirtualMemory page size: 4096 log2_page_size: 12

CPU 0 runs /home/vedant/Practicals/AdvanceCA/Assignments/Assignment2/traces/603.bwaves_s-1740B.champsimtrace.xz
CPU 0 Bimodal branch predictor
Basic BTB sets: 1024 ways: 8 indirect buffer size: 4096 RAS size: 64
cpu0_L2C Stream prefetcher
WARNING: The extended signature CACHE::prefetch_line(ip, base_addr, pf_addr, fill_this_level, prefetch_metadata) is deprecated.
WARNING: Use CACHE::prefetch_line(pf_addr, fill_this_level, prefetch_metadata) instead.
Heartbeat CPU 0 instructions: 10000001 cycles: 3642288 heartbeat IPC: 2.74553 cumulative IPC: 2.74553 (Simulation time: 0 hr 1 min 0 sec) 
Heartbeat CPU 0 instructions: 20000001 cycles: 7284434 heartbeat IPC: 2.74563 cumulative IPC: 2.74558 (Simulation time: 0 hr 1 min 51 sec) 

Warmup complete CPU 0 instructions: 25000001 cycles: 9105488 (Simulation time: 0 hr 2 min 14 sec) 

Heartbeat CPU 0 instructions: 30000003 cycles: 23539529 heartbeat IPC: 0.615192 cumulative IPC: 0.346403 (Simulation time: 0 hr 3 min 33 sec) 
Heartbeat CPU 0 instructions: 40000001 cycles: 52396562 heartbeat IPC: 0.346536 cumulative IPC: 0.346492 (Simulation time: 0 hr 6 min 5 sec) 
Heartbeat CPU 0 instructions: 50000001 cycles: 81256041 heartbeat IPC: 0.346507 cumulative IPC: 0.346498 (Simulation time: 0 hr 8 min 17 sec) 
Finished CPU 0 instructions: 25000000 cycles: 72150553 cumulative IPC: 0.346498 (Simulation time: 0 hr 8 min 17 sec) 

ChampSim completed all CPUs

Region of Interest Statistics

CPU 0 cumulative IPC: 0.346498 instructions: 25000000 cycles: 72150553
cpu0_DTLB TOTAL     ACCESS:    7858794  HIT:    7829589  MISS:      29205
cpu0_DTLB LOAD      ACCESS:    7303230  HIT:    7278891  MISS:      24339
cpu0_DTLB RFO       ACCESS:     555564  HIT:     550698  MISS:       4866
cpu0_DTLB PREFETCH  ACCESS:          0  HIT:          0  MISS:          0
cpu0_DTLB WRITEBACK ACCESS:          0  HIT:          0  MISS:          0
cpu0_DTLB TRANSLATION ACCESS:          0  HIT:          0  MISS:          0
cpu0_DTLB PREFETCH  REQUESTED:          0  ISSUED:          0  USEFUL:          0  USELESS:          0
cpu0_DTLB AVERAGE MISS LATENCY: 73.6756 cycles
cpu0_ITLB TOTAL     ACCESS:    2204148  HIT:    2204148  MISS:          0
cpu0_ITLB LOAD      ACCESS:    2204148  HIT:    2204148  MISS:          0
cpu0_ITLB RFO       ACCESS:          0  HIT:          0  MISS:          0
cpu0_ITLB PREFETCH  ACCESS:          0  HIT:          0  MISS:          0
cpu0_ITLB WRITEBACK ACCESS:          0  HIT:          0  MISS:          0
cpu0_ITLB TRANSLATION ACCESS:          0  HIT:          0  MISS:          0
cpu0_ITLB PREFETCH  REQUESTED:          0  ISSUED:          0  USEFUL:          0  USELESS:          0
cpu0_ITLB AVERAGE MISS LATENCY: -nan cycles
cpu0_STLB TOTAL     ACCESS:      29205  HIT:      21781  MISS:       7424
cpu0_STLB LOAD      ACCESS:      24339  HIT:      17105  MISS:       7234
cpu0_STLB RFO       ACCESS:       4866  HIT:       4676  MISS:        190
cpu0_STLB PREFETCH  ACCESS:          0  HIT:          0  MISS:          0
cpu0_STLB WRITEBACK ACCESS:          0  HIT:          0  MISS:          0
cpu0_STLB TRANSLATION ACCESS:          0  HIT:          0  MISS:          0
cpu0_STLB PREFETCH  REQUESTED:          0  ISSUED:          0  USEFUL:          0  USELESS:          0
cpu0_STLB AVERAGE MISS LATENCY: 253.636 cycles
cpu0_L1D TOTAL     ACCESS:    7902523  HIT:    7402271  MISS:     500252
cpu0_L1D LOAD      ACCESS:    6506092  HIT:    6018465  MISS:     487627
cpu0_L1D RFO       ACCESS:    1389007  HIT:    1376826  MISS:      12181
cpu0_L1D PREFETCH  ACCESS:          0  HIT:          0  MISS:          0
cpu0_L1D WRITEBACK ACCESS:          0  HIT:          0  MISS:          0
cpu0_L1D TRANSLATION ACCESS:       7424  HIT:       6980  MISS:        444
cpu0_L1D PREFETCH  REQUESTED:          0  ISSUED:          0  USEFUL:          0  USELESS:          0
cpu0_L1D AVERAGE MISS LATENCY: 1165.03 cycles
cpu0_L2C TOTAL     ACCESS:    1974624  HIT:    1460173  MISS:     514451
cpu0_L2C LOAD      ACCESS:     487627  HIT:      24441  MISS:     463186
cpu0_L2C RFO       ACCESS:      12181  HIT:          0  MISS:      12181
cpu0_L2C PREFETCH  ACCESS:    1462005  HIT:    1422939  MISS:      39066
cpu0_L2C WRITEBACK ACCESS:      12367  HIT:      12367  MISS:          0
cpu0_L2C TRANSLATION ACCESS:        444  HIT:        426  MISS:         18
cpu0_L2C PREFETCH  REQUESTED:    1644064  ISSUED:    1552081  USEFUL:      39073  USELESS:         13
cpu0_L2C AVERAGE MISS LATENCY: 1175.72 cycles
LLC TOTAL     ACCESS:     609140  HIT:      90715  MISS:     518425
LLC LOAD      ACCESS:     463186  HIT:        301  MISS:     462885
LLC RFO       ACCESS:      12181  HIT:          0  MISS:      12181
LLC PREFETCH  ACCESS:     121555  HIT:      78217  MISS:      43338
LLC WRITEBACK ACCESS:      12200  HIT:      12194  MISS:          6
LLC TRANSLATION ACCESS:         18  HIT:          3  MISS:         15
LLC PREFETCH  REQUESTED:          0  ISSUED:          0  USEFUL:          0  USELESS:          0
LLC AVERAGE MISS LATENCY: 1231.99 cycles

DRAM Statistics
 CHANNEL 0
 RQ ROW_BUFFER_HIT:      22851  ROW_BUFFER_MISS:     495568
 DBUS AVG_CONGESTED_CYCLE:     3.9981
 WQ ROW_BUFFER_HIT:       3042  ROW_BUFFER_MISS:       9443  FULL:          0


CPU 0 Branch Prediction Accuracy: 62.4635% MPKI: 9.3696 Average ROB Occupancy at Mispredict: 291.157
Branch type MPKI
BRANCH_DIRECT_JUMP: 0
BRANCH_INDIRECT: 0
BRANCH_CONDITIONAL: 9.3696
BRANCH_DIRECT_CALL: 0
BRANCH_INDIRECT_CALL: 0
BRANCH_RETURN: 0

