
*** ChampSim Multicore Out-of-Order Simulator ***

Warmup Instructions: 25000000
Simulation Instructions: 25000000
Number of CPUs: 1
Off-chip DRAM Size: 4 GiB Channels: 1 Width: 64-bit Data Rate: 3200 MT/s

VirtualMemory physical capacity: 8588881920 num_ppages: 2096895
VirtualMemory page size: 4096 log2_page_size: 12

CPU 0 runs /home/yogo/Documents/clonos/pa2-race-of-prefetchers-template/traces/603.bwaves_s-1740B.champsimtrace.xz
CPU 0 Bimodal branch predictor
Basic BTB sets: 1024 ways: 8 indirect buffer size: 4096 RAS size: 64
cpu0_L2C Hybrid Stream + IP-based stride prefetcher
WARNING: The extended signature CACHE::prefetch_line(ip, base_addr, pf_addr, fill_this_level, prefetch_metadata) is deprecated.
WARNING: Use CACHE::prefetch_line(pf_addr, fill_this_level, prefetch_metadata) instead.
Heartbeat CPU 0 instructions: 10000001 cycles: 3642288 heartbeat IPC: 2.74553 cumulative IPC: 2.74553 (Simulation time: 0 hr 1 min 5 sec) 
Heartbeat CPU 0 instructions: 20000001 cycles: 7284434 heartbeat IPC: 2.74563 cumulative IPC: 2.74558 (Simulation time: 0 hr 1 min 58 sec) 

Warmup complete CPU 0 instructions: 25000001 cycles: 9105488 (Simulation time: 0 hr 2 min 22 sec) 

Heartbeat CPU 0 instructions: 30000003 cycles: 23469279 heartbeat IPC: 0.617862 cumulative IPC: 0.348098 (Simulation time: 0 hr 3 min 41 sec) 
Heartbeat CPU 0 instructions: 40000001 cycles: 52201302 heartbeat IPC: 0.348044 cumulative IPC: 0.348062 (Simulation time: 0 hr 6 min 14 sec) 
Heartbeat CPU 0 instructions: 50000001 cycles: 80916881 heartbeat IPC: 0.348243 cumulative IPC: 0.348134 (Simulation time: 0 hr 8 min 31 sec) 
Finished CPU 0 instructions: 25000000 cycles: 71811393 cumulative IPC: 0.348134 (Simulation time: 0 hr 8 min 31 sec) 

ChampSim completed all CPUs

Region of Interest Statistics

CPU 0 cumulative IPC: 0.348134 instructions: 25000000 cycles: 71811393
cpu0_DTLB TOTAL     ACCESS:    7858733  HIT:    7829521  MISS:      29212
cpu0_DTLB LOAD      ACCESS:    7303289  HIT:    7278944  MISS:      24345
cpu0_DTLB RFO       ACCESS:     555444  HIT:     550577  MISS:       4867
cpu0_DTLB PREFETCH  ACCESS:          0  HIT:          0  MISS:          0
cpu0_DTLB WRITEBACK ACCESS:          0  HIT:          0  MISS:          0
cpu0_DTLB TRANSLATION ACCESS:          0  HIT:          0  MISS:          0
cpu0_DTLB PREFETCH  REQUESTED:          0  ISSUED:          0  USEFUL:          0  USELESS:          0
cpu0_DTLB AVERAGE MISS LATENCY: 73.6602 cycles
cpu0_ITLB TOTAL     ACCESS:    2204270  HIT:    2204270  MISS:          0
cpu0_ITLB LOAD      ACCESS:    2204270  HIT:    2204270  MISS:          0
cpu0_ITLB RFO       ACCESS:          0  HIT:          0  MISS:          0
cpu0_ITLB PREFETCH  ACCESS:          0  HIT:          0  MISS:          0
cpu0_ITLB WRITEBACK ACCESS:          0  HIT:          0  MISS:          0
cpu0_ITLB TRANSLATION ACCESS:          0  HIT:          0  MISS:          0
cpu0_ITLB PREFETCH  REQUESTED:          0  ISSUED:          0  USEFUL:          0  USELESS:          0
cpu0_ITLB AVERAGE MISS LATENCY: -nan cycles
cpu0_STLB TOTAL     ACCESS:      29212  HIT:      21788  MISS:       7424
cpu0_STLB LOAD      ACCESS:      24345  HIT:      17111  MISS:       7234
cpu0_STLB RFO       ACCESS:       4867  HIT:       4677  MISS:        190
cpu0_STLB PREFETCH  ACCESS:          0  HIT:          0  MISS:          0
cpu0_STLB WRITEBACK ACCESS:          0  HIT:          0  MISS:          0
cpu0_STLB TRANSLATION ACCESS:          0  HIT:          0  MISS:          0
cpu0_STLB PREFETCH  REQUESTED:          0  ISSUED:          0  USEFUL:          0  USELESS:          0
cpu0_STLB AVERAGE MISS LATENCY: 253.637 cycles
cpu0_L1D TOTAL     ACCESS:    7902576  HIT:    7402324  MISS:     500252
cpu0_L1D LOAD      ACCESS:    6506120  HIT:    6018493  MISS:     487627
cpu0_L1D RFO       ACCESS:    1389032  HIT:    1376851  MISS:      12181
cpu0_L1D PREFETCH  ACCESS:          0  HIT:          0  MISS:          0
cpu0_L1D WRITEBACK ACCESS:          0  HIT:          0  MISS:          0
cpu0_L1D TRANSLATION ACCESS:       7424  HIT:       6980  MISS:        444
cpu0_L1D PREFETCH  REQUESTED:          0  ISSUED:          0  USEFUL:          0  USELESS:          0
cpu0_L1D AVERAGE MISS LATENCY: 1162.69 cycles
cpu0_L2C TOTAL     ACCESS:    1400907  HIT:     898564  MISS:     502343
cpu0_L2C LOAD      ACCESS:     487627  HIT:      24495  MISS:     463132
cpu0_L2C RFO       ACCESS:      12181  HIT:          0  MISS:      12181
cpu0_L2C PREFETCH  ACCESS:     888288  HIT:     861276  MISS:      27012
cpu0_L2C WRITEBACK ACCESS:      12367  HIT:      12367  MISS:          0
cpu0_L2C TRANSLATION ACCESS:        444  HIT:        426  MISS:         18
cpu0_L2C PREFETCH  REQUESTED:     964794  ISSUED:     912265  USEFUL:      22822  USELESS:       4198
cpu0_L2C AVERAGE MISS LATENCY: 1194.79 cycles
LLC TOTAL     ACCESS:     529934  HIT:      24602  MISS:     505332
LLC LOAD      ACCESS:     463132  HIT:        246  MISS:     462886
LLC RFO       ACCESS:      12181  HIT:          0  MISS:      12181
LLC PREFETCH  ACCESS:      42400  HIT:      12154  MISS:      30246
LLC WRITEBACK ACCESS:      12203  HIT:      12199  MISS:          4
LLC TRANSLATION ACCESS:         18  HIT:          3  MISS:         15
LLC PREFETCH  REQUESTED:          0  ISSUED:          0  USEFUL:          0  USELESS:          0
LLC AVERAGE MISS LATENCY: 1215.01 cycles

DRAM Statistics
 CHANNEL 0
 RQ ROW_BUFFER_HIT:        681  ROW_BUFFER_MISS:     504647
 DBUS AVG_CONGESTED_CYCLE:    3.99857
 WQ ROW_BUFFER_HIT:       2712  ROW_BUFFER_MISS:       9759  FULL:          0


CPU 0 Branch Prediction Accuracy: 62.4635% MPKI: 9.3696 Average ROB Occupancy at Mispredict: 291.171
Branch type MPKI
BRANCH_DIRECT_JUMP: 0
BRANCH_INDIRECT: 0
BRANCH_CONDITIONAL: 9.3696
BRANCH_DIRECT_CALL: 0
BRANCH_INDIRECT_CALL: 0
BRANCH_RETURN: 0

