
*** ChampSim Multicore Out-of-Order Simulator ***

Warmup Instructions: 25000000
Simulation Instructions: 25000000
Number of CPUs: 1
Off-chip DRAM Size: 4 GiB Channels: 1 Width: 64-bit Data Rate: 3200 MT/s

VirtualMemory physical capacity: 8588881920 num_ppages: 2096895
VirtualMemory page size: 4096 log2_page_size: 12

CPU 0 runs /home/ravi/ACA/pa2-race-of-prefetchers-random/Traces/603.bwaves_s-1740B.champsimtrace.xz
CPU 0 Bimodal branch predictor
Basic BTB sets: 1024 ways: 8 indirect buffer size: 4096 RAS size: 64
cpu0_L2C IP-based stride prefetcher
WARNING: The extended signature CACHE::prefetch_line(ip, base_addr, pf_addr, fill_this_level, prefetch_metadata) is deprecated.
WARNING: Use CACHE::prefetch_line(pf_addr, fill_this_level, prefetch_metadata) instead.
Heartbeat CPU 0 instructions: 10000001 cycles: 3642288 heartbeat IPC: 2.74553 cumulative IPC: 2.74553 (Simulation time: 0 hr 1 min 3 sec) 
Heartbeat CPU 0 instructions: 20000001 cycles: 7284434 heartbeat IPC: 2.74563 cumulative IPC: 2.74558 (Simulation time: 0 hr 1 min 56 sec) 

Warmup complete CPU 0 instructions: 25000001 cycles: 9105488 (Simulation time: 0 hr 2 min 21 sec) 

Heartbeat CPU 0 instructions: 30000003 cycles: 23568999 heartbeat IPC: 0.614079 cumulative IPC: 0.345698 (Simulation time: 0 hr 3 min 47 sec) 
Heartbeat CPU 0 instructions: 40000001 cycles: 52485592 heartbeat IPC: 0.345822 cumulative IPC: 0.345781 (Simulation time: 0 hr 6 min 32 sec) 
Heartbeat CPU 0 instructions: 50000001 cycles: 81399616 heartbeat IPC: 0.345853 cumulative IPC: 0.34581 (Simulation time: 0 hr 8 min 40 sec) 
Finished CPU 0 instructions: 25000000 cycles: 72294128 cumulative IPC: 0.34581 (Simulation time: 0 hr 8 min 40 sec) 

ChampSim completed all CPUs

Region of Interest Statistics

CPU 0 cumulative IPC: 0.34581 instructions: 25000000 cycles: 72294128
cpu0_DTLB TOTAL     ACCESS:    7858451  HIT:    7829259  MISS:      29192
cpu0_DTLB LOAD      ACCESS:    7302917  HIT:    7278587  MISS:      24330
cpu0_DTLB RFO       ACCESS:     555534  HIT:     550672  MISS:       4862
cpu0_DTLB PREFETCH  ACCESS:          0  HIT:          0  MISS:          0
cpu0_DTLB WRITEBACK ACCESS:          0  HIT:          0  MISS:          0
cpu0_DTLB TRANSLATION ACCESS:          0  HIT:          0  MISS:          0
cpu0_DTLB PREFETCH  REQUESTED:          0  ISSUED:          0  USEFUL:          0  USELESS:          0
cpu0_DTLB AVERAGE MISS LATENCY: 73.7426 cycles
cpu0_ITLB TOTAL     ACCESS:    2204162  HIT:    2204162  MISS:          0
cpu0_ITLB LOAD      ACCESS:    2204162  HIT:    2204162  MISS:          0
cpu0_ITLB RFO       ACCESS:          0  HIT:          0  MISS:          0
cpu0_ITLB PREFETCH  ACCESS:          0  HIT:          0  MISS:          0
cpu0_ITLB WRITEBACK ACCESS:          0  HIT:          0  MISS:          0
cpu0_ITLB TRANSLATION ACCESS:          0  HIT:          0  MISS:          0
cpu0_ITLB PREFETCH  REQUESTED:          0  ISSUED:          0  USEFUL:          0  USELESS:          0
cpu0_ITLB AVERAGE MISS LATENCY: -nan cycles
cpu0_STLB TOTAL     ACCESS:      29192  HIT:      21768  MISS:       7424
cpu0_STLB LOAD      ACCESS:      24330  HIT:      17096  MISS:       7234
cpu0_STLB RFO       ACCESS:       4862  HIT:       4672  MISS:        190
cpu0_STLB PREFETCH  ACCESS:          0  HIT:          0  MISS:          0
cpu0_STLB WRITEBACK ACCESS:          0  HIT:          0  MISS:          0
cpu0_STLB TRANSLATION ACCESS:          0  HIT:          0  MISS:          0
cpu0_STLB PREFETCH  REQUESTED:          0  ISSUED:          0  USEFUL:          0  USELESS:          0
cpu0_STLB AVERAGE MISS LATENCY: 253.787 cycles
cpu0_L1D TOTAL     ACCESS:    7902091  HIT:    7401839  MISS:     500252
cpu0_L1D LOAD      ACCESS:    6505785  HIT:    6018158  MISS:     487627
cpu0_L1D RFO       ACCESS:    1388882  HIT:    1376701  MISS:      12181
cpu0_L1D PREFETCH  ACCESS:          0  HIT:          0  MISS:          0
cpu0_L1D WRITEBACK ACCESS:          0  HIT:          0  MISS:          0
cpu0_L1D TRANSLATION ACCESS:       7424  HIT:       6980  MISS:        444
cpu0_L1D PREFETCH  REQUESTED:          0  ISSUED:          0  USEFUL:          0  USELESS:          0
cpu0_L1D AVERAGE MISS LATENCY: 1168.25 cycles
cpu0_L2C TOTAL     ACCESS:    2235205  HIT:    1708775  MISS:     526430
cpu0_L2C LOAD      ACCESS:     487627  HIT:      24382  MISS:     463245
cpu0_L2C RFO       ACCESS:      12181  HIT:          0  MISS:      12181
cpu0_L2C PREFETCH  ACCESS:    1722586  HIT:    1671600  MISS:      50986
cpu0_L2C WRITEBACK ACCESS:      12367  HIT:      12367  MISS:          0
cpu0_L2C TRANSLATION ACCESS:        444  HIT:        426  MISS:         18
cpu0_L2C PREFETCH  REQUESTED:    2105550  ISSUED:    1886567  USEFUL:      50958  USELESS:         35
cpu0_L2C AVERAGE MISS LATENCY: 1173.73 cycles
LLC TOTAL     ACCESS:     695394  HIT:     160217  MISS:     535177
LLC LOAD      ACCESS:     463245  HIT:        368  MISS:     462877
LLC RFO       ACCESS:      12181  HIT:          0  MISS:      12181
LLC PREFETCH  ACCESS:     207753  HIT:     147654  MISS:      60099
LLC WRITEBACK ACCESS:      12197  HIT:      12193  MISS:          4
LLC TRANSLATION ACCESS:         18  HIT:          2  MISS:         16
LLC PREFETCH  REQUESTED:          0  ISSUED:          0  USEFUL:          0  USELESS:          0
LLC AVERAGE MISS LATENCY: 1274.43 cycles

DRAM Statistics
 CHANNEL 0
 RQ ROW_BUFFER_HIT:       1933  ROW_BUFFER_MISS:     533240
 DBUS AVG_CONGESTED_CYCLE:    3.99971
 WQ ROW_BUFFER_HIT:       2624  ROW_BUFFER_MISS:       9864  FULL:          0


CPU 0 Branch Prediction Accuracy: 62.4635% MPKI: 9.3696 Average ROB Occupancy at Mispredict: 291.172
Branch type MPKI
BRANCH_DIRECT_JUMP: 0
BRANCH_INDIRECT: 0
BRANCH_CONDITIONAL: 9.3696
BRANCH_DIRECT_CALL: 0
BRANCH_INDIRECT_CALL: 0
BRANCH_RETURN: 0

