
*** ChampSim Multicore Out-of-Order Simulator ***

Warmup Instructions: 25000000
Simulation Instructions: 25000000
Number of CPUs: 1
Off-chip DRAM Size: 4 GiB Channels: 1 Width: 64-bit Data Rate: 3200 MT/s

VirtualMemory physical capacity: 8588881920 num_ppages: 2096895
VirtualMemory page size: 4096 log2_page_size: 12

CPU 0 runs /home/yogo/Documents/clonos/pa2-race-of-prefetchers-template/traces/603.bwaves_s-1740B.champsimtrace.xz
CPU 0 Bimodal branch predictor
Basic BTB sets: 1024 ways: 8 indirect buffer size: 4096 RAS size: 64
cpu0_L2C Hybrid Stream + IP-based stride prefetcher
WARNING: The extended signature CACHE::prefetch_line(ip, base_addr, pf_addr, fill_this_level, prefetch_metadata) is deprecated.
WARNING: Use CACHE::prefetch_line(pf_addr, fill_this_level, prefetch_metadata) instead.
Heartbeat CPU 0 instructions: 10000001 cycles: 3642288 heartbeat IPC: 2.74553 cumulative IPC: 2.74553 (Simulation time: 0 hr 1 min 3 sec) 
Heartbeat CPU 0 instructions: 20000001 cycles: 7284434 heartbeat IPC: 2.74563 cumulative IPC: 2.74558 (Simulation time: 0 hr 2 min 3 sec) 

Warmup complete CPU 0 instructions: 25000001 cycles: 9105488 (Simulation time: 0 hr 2 min 28 sec) 

Heartbeat CPU 0 instructions: 30000003 cycles: 23639614 heartbeat IPC: 0.611427 cumulative IPC: 0.344018 (Simulation time: 0 hr 3 min 53 sec) 
Heartbeat CPU 0 instructions: 40000001 cycles: 52690272 heartbeat IPC: 0.344226 cumulative IPC: 0.344157 (Simulation time: 0 hr 6 min 39 sec) 
Heartbeat CPU 0 instructions: 50000001 cycles: 81734636 heartbeat IPC: 0.344301 cumulative IPC: 0.344214 (Simulation time: 0 hr 8 min 50 sec) 
Finished CPU 0 instructions: 25000000 cycles: 72629148 cumulative IPC: 0.344214 (Simulation time: 0 hr 8 min 50 sec) 

ChampSim completed all CPUs

Region of Interest Statistics

CPU 0 cumulative IPC: 0.344214 instructions: 25000000 cycles: 72629148
cpu0_DTLB TOTAL     ACCESS:    7858678  HIT:    7829471  MISS:      29207
cpu0_DTLB LOAD      ACCESS:    7303160  HIT:    7278819  MISS:      24341
cpu0_DTLB RFO       ACCESS:     555518  HIT:     550652  MISS:       4866
cpu0_DTLB PREFETCH  ACCESS:          0  HIT:          0  MISS:          0
cpu0_DTLB WRITEBACK ACCESS:          0  HIT:          0  MISS:          0
cpu0_DTLB TRANSLATION ACCESS:          0  HIT:          0  MISS:          0
cpu0_DTLB PREFETCH  REQUESTED:          0  ISSUED:          0  USEFUL:          0  USELESS:          0
cpu0_DTLB AVERAGE MISS LATENCY: 73.7092 cycles
cpu0_ITLB TOTAL     ACCESS:    2204601  HIT:    2204601  MISS:          0
cpu0_ITLB LOAD      ACCESS:    2204601  HIT:    2204601  MISS:          0
cpu0_ITLB RFO       ACCESS:          0  HIT:          0  MISS:          0
cpu0_ITLB PREFETCH  ACCESS:          0  HIT:          0  MISS:          0
cpu0_ITLB WRITEBACK ACCESS:          0  HIT:          0  MISS:          0
cpu0_ITLB TRANSLATION ACCESS:          0  HIT:          0  MISS:          0
cpu0_ITLB PREFETCH  REQUESTED:          0  ISSUED:          0  USEFUL:          0  USELESS:          0
cpu0_ITLB AVERAGE MISS LATENCY: -nan cycles
cpu0_STLB TOTAL     ACCESS:      29207  HIT:      21783  MISS:       7424
cpu0_STLB LOAD      ACCESS:      24341  HIT:      17107  MISS:       7234
cpu0_STLB RFO       ACCESS:       4866  HIT:       4676  MISS:        190
cpu0_STLB PREFETCH  ACCESS:          0  HIT:          0  MISS:          0
cpu0_STLB WRITEBACK ACCESS:          0  HIT:          0  MISS:          0
cpu0_STLB TRANSLATION ACCESS:          0  HIT:          0  MISS:          0
cpu0_STLB PREFETCH  REQUESTED:          0  ISSUED:          0  USEFUL:          0  USELESS:          0
cpu0_STLB AVERAGE MISS LATENCY: 253.786 cycles
cpu0_L1D TOTAL     ACCESS:    7902238  HIT:    7401986  MISS:     500252
cpu0_L1D LOAD      ACCESS:    6505854  HIT:    6018227  MISS:     487627
cpu0_L1D RFO       ACCESS:    1388960  HIT:    1376779  MISS:      12181
cpu0_L1D PREFETCH  ACCESS:          0  HIT:          0  MISS:          0
cpu0_L1D WRITEBACK ACCESS:          0  HIT:          0  MISS:          0
cpu0_L1D TRANSLATION ACCESS:       7424  HIT:       6980  MISS:        444
cpu0_L1D PREFETCH  REQUESTED:          0  ISSUED:          0  USEFUL:          0  USELESS:          0
cpu0_L1D AVERAGE MISS LATENCY: 1170.39 cycles
cpu0_L2C TOTAL     ACCESS:    1909844  HIT:    1385334  MISS:     524510
cpu0_L2C LOAD      ACCESS:     487627  HIT:      24387  MISS:     463240
cpu0_L2C RFO       ACCESS:      12181  HIT:          0  MISS:      12181
cpu0_L2C PREFETCH  ACCESS:    1397225  HIT:    1348154  MISS:      49071
cpu0_L2C WRITEBACK ACCESS:      12367  HIT:      12367  MISS:          0
cpu0_L2C TRANSLATION ACCESS:        444  HIT:        426  MISS:         18
cpu0_L2C PREFETCH  REQUESTED:    1638396  ISSUED:    1487023  USEFUL:      41333  USELESS:       7777
cpu0_L2C AVERAGE MISS LATENCY: 1181.76 cycles
LLC TOTAL     ACCESS:     615189  HIT:      78808  MISS:     536381
LLC LOAD      ACCESS:     463240  HIT:        359  MISS:     462881
LLC RFO       ACCESS:      12181  HIT:          0  MISS:      12181
LLC PREFETCH  ACCESS:     127557  HIT:      66260  MISS:      61297
LLC WRITEBACK ACCESS:      12193  HIT:      12187  MISS:          6
LLC TRANSLATION ACCESS:         18  HIT:          2  MISS:         16
LLC PREFETCH  REQUESTED:          0  ISSUED:          0  USEFUL:          0  USELESS:          0
LLC AVERAGE MISS LATENCY: 1266.44 cycles

DRAM Statistics
 CHANNEL 0
 RQ ROW_BUFFER_HIT:      14216  ROW_BUFFER_MISS:     522159
 DBUS AVG_CONGESTED_CYCLE:    3.99932
 WQ ROW_BUFFER_HIT:       2647  ROW_BUFFER_MISS:       9839  FULL:          0


CPU 0 Branch Prediction Accuracy: 62.4635% MPKI: 9.3696 Average ROB Occupancy at Mispredict: 291.176
Branch type MPKI
BRANCH_DIRECT_JUMP: 0
BRANCH_INDIRECT: 0
BRANCH_CONDITIONAL: 9.3696
BRANCH_DIRECT_CALL: 0
BRANCH_INDIRECT_CALL: 0
BRANCH_RETURN: 0

