
*** ChampSim Multicore Out-of-Order Simulator ***

Warmup Instructions: 25000000
Simulation Instructions: 25000000
Number of CPUs: 1
Off-chip DRAM Size: 4 GiB Channels: 1 Width: 64-bit Data Rate: 3200 MT/s

VirtualMemory physical capacity: 8588881920 num_ppages: 2096895
VirtualMemory page size: 4096 log2_page_size: 12

CPU 0 runs /home/yogo/Documents/clonos/pa2-race-of-prefetchers-template/traces/603.bwaves_s-1740B.champsimtrace.xz
CPU 0 Bimodal branch predictor
Basic BTB sets: 1024 ways: 8 indirect buffer size: 4096 RAS size: 64
cpu0_L2C Hybrid Stream + IP-based stride prefetcher
WARNING: The extended signature CACHE::prefetch_line(ip, base_addr, pf_addr, fill_this_level, prefetch_metadata) is deprecated.
WARNING: Use CACHE::prefetch_line(pf_addr, fill_this_level, prefetch_metadata) instead.
Heartbeat CPU 0 instructions: 10000001 cycles: 3642288 heartbeat IPC: 2.74553 cumulative IPC: 2.74553 (Simulation time: 0 hr 0 min 50 sec) 
Heartbeat CPU 0 instructions: 20000001 cycles: 7284434 heartbeat IPC: 2.74563 cumulative IPC: 2.74558 (Simulation time: 0 hr 1 min 40 sec) 

Warmup complete CPU 0 instructions: 25000001 cycles: 9105488 (Simulation time: 0 hr 2 min 4 sec) 

Heartbeat CPU 0 instructions: 30000003 cycles: 23597104 heartbeat IPC: 0.613021 cumulative IPC: 0.345027 (Simulation time: 0 hr 3 min 24 sec) 
Heartbeat CPU 0 instructions: 40000001 cycles: 52562972 heartbeat IPC: 0.345234 cumulative IPC: 0.345165 (Simulation time: 0 hr 5 min 57 sec) 
Heartbeat CPU 0 instructions: 50000001 cycles: 81524436 heartbeat IPC: 0.345286 cumulative IPC: 0.345214 (Simulation time: 0 hr 8 min 13 sec) 
Finished CPU 0 instructions: 25000000 cycles: 72418948 cumulative IPC: 0.345214 (Simulation time: 0 hr 8 min 13 sec) 

ChampSim completed all CPUs

Region of Interest Statistics

CPU 0 cumulative IPC: 0.345214 instructions: 25000000 cycles: 72418948
cpu0_DTLB TOTAL     ACCESS:    7858663  HIT:    7829455  MISS:      29208
cpu0_DTLB LOAD      ACCESS:    7303146  HIT:    7278804  MISS:      24342
cpu0_DTLB RFO       ACCESS:     555517  HIT:     550651  MISS:       4866
cpu0_DTLB PREFETCH  ACCESS:          0  HIT:          0  MISS:          0
cpu0_DTLB WRITEBACK ACCESS:          0  HIT:          0  MISS:          0
cpu0_DTLB TRANSLATION ACCESS:          0  HIT:          0  MISS:          0
cpu0_DTLB PREFETCH  REQUESTED:          0  ISSUED:          0  USEFUL:          0  USELESS:          0
cpu0_DTLB AVERAGE MISS LATENCY: 73.6682 cycles
cpu0_ITLB TOTAL     ACCESS:    2204530  HIT:    2204530  MISS:          0
cpu0_ITLB LOAD      ACCESS:    2204530  HIT:    2204530  MISS:          0
cpu0_ITLB RFO       ACCESS:          0  HIT:          0  MISS:          0
cpu0_ITLB PREFETCH  ACCESS:          0  HIT:          0  MISS:          0
cpu0_ITLB WRITEBACK ACCESS:          0  HIT:          0  MISS:          0
cpu0_ITLB TRANSLATION ACCESS:          0  HIT:          0  MISS:          0
cpu0_ITLB PREFETCH  REQUESTED:          0  ISSUED:          0  USEFUL:          0  USELESS:          0
cpu0_ITLB AVERAGE MISS LATENCY: -nan cycles
cpu0_STLB TOTAL     ACCESS:      29208  HIT:      21784  MISS:       7424
cpu0_STLB LOAD      ACCESS:      24342  HIT:      17108  MISS:       7234
cpu0_STLB RFO       ACCESS:       4866  HIT:       4676  MISS:        190
cpu0_STLB PREFETCH  ACCESS:          0  HIT:          0  MISS:          0
cpu0_STLB WRITEBACK ACCESS:          0  HIT:          0  MISS:          0
cpu0_STLB TRANSLATION ACCESS:          0  HIT:          0  MISS:          0
cpu0_STLB PREFETCH  REQUESTED:          0  ISSUED:          0  USEFUL:          0  USELESS:          0
cpu0_STLB AVERAGE MISS LATENCY: 253.634 cycles
cpu0_L1D TOTAL     ACCESS:    7902398  HIT:    7402146  MISS:     500252
cpu0_L1D LOAD      ACCESS:    6505976  HIT:    6018349  MISS:     487627
cpu0_L1D RFO       ACCESS:    1388998  HIT:    1376817  MISS:      12181
cpu0_L1D PREFETCH  ACCESS:          0  HIT:          0  MISS:          0
cpu0_L1D WRITEBACK ACCESS:          0  HIT:          0  MISS:          0
cpu0_L1D TRANSLATION ACCESS:       7424  HIT:       6980  MISS:        444
cpu0_L1D PREFETCH  REQUESTED:          0  ISSUED:          0  USEFUL:          0  USELESS:          0
cpu0_L1D AVERAGE MISS LATENCY: 1168.57 cycles
cpu0_L2C TOTAL     ACCESS:    1760796  HIT:    1242686  MISS:     518110
cpu0_L2C LOAD      ACCESS:     487627  HIT:      24423  MISS:     463204
cpu0_L2C RFO       ACCESS:      12181  HIT:          0  MISS:      12181
cpu0_L2C PREFETCH  ACCESS:    1248177  HIT:    1205469  MISS:      42708
cpu0_L2C WRITEBACK ACCESS:      12367  HIT:      12367  MISS:          0
cpu0_L2C TRANSLATION ACCESS:        444  HIT:        427  MISS:         17
cpu0_L2C PREFETCH  REQUESTED:    1384420  ISSUED:    1310920  USEFUL:      36004  USELESS:       6737
cpu0_L2C AVERAGE MISS LATENCY: 1185.99 cycles
LLC TOTAL     ACCESS:     581451  HIT:      55250  MISS:     526201
LLC LOAD      ACCESS:     463204  HIT:        322  MISS:     462882
LLC RFO       ACCESS:      12181  HIT:          0  MISS:      12181
LLC PREFETCH  ACCESS:      93856  HIT:      42739  MISS:      51117
LLC WRITEBACK ACCESS:      12193  HIT:      12187  MISS:          6
LLC TRANSLATION ACCESS:         17  HIT:          2  MISS:         15
LLC PREFETCH  REQUESTED:          0  ISSUED:          0  USEFUL:          0  USELESS:          0
LLC AVERAGE MISS LATENCY: 1249.83 cycles

DRAM Statistics
 CHANNEL 0
 RQ ROW_BUFFER_HIT:      10614  ROW_BUFFER_MISS:     515581
 DBUS AVG_CONGESTED_CYCLE:    3.99866
 WQ ROW_BUFFER_HIT:       2702  ROW_BUFFER_MISS:       9780  FULL:          0


CPU 0 Branch Prediction Accuracy: 62.4635% MPKI: 9.3696 Average ROB Occupancy at Mispredict: 291.175
Branch type MPKI
BRANCH_DIRECT_JUMP: 0
BRANCH_INDIRECT: 0
BRANCH_CONDITIONAL: 9.3696
BRANCH_DIRECT_CALL: 0
BRANCH_INDIRECT_CALL: 0
BRANCH_RETURN: 0

