
*** ChampSim Multicore Out-of-Order Simulator ***

Warmup Instructions: 25000000
Simulation Instructions: 25000000
Number of CPUs: 1
Off-chip DRAM Size: 4 GiB Channels: 1 Width: 64-bit Data Rate: 3200 MT/s

VirtualMemory physical capacity: 8588881920 num_ppages: 2096895
VirtualMemory page size: 4096 log2_page_size: 12

CPU 0 runs /home/vedant/Practicals/AdvanceCA/Assignments/Assignment2/traces/603.bwaves_s-1740B.champsimtrace.xz
CPU 0 Bimodal branch predictor
Basic BTB sets: 1024 ways: 8 indirect buffer size: 4096 RAS size: 64
cpu0_L2C Stream prefetcher
WARNING: The extended signature CACHE::prefetch_line(ip, base_addr, pf_addr, fill_this_level, prefetch_metadata) is deprecated.
WARNING: Use CACHE::prefetch_line(pf_addr, fill_this_level, prefetch_metadata) instead.
Heartbeat CPU 0 instructions: 10000001 cycles: 3642288 heartbeat IPC: 2.74553 cumulative IPC: 2.74553 (Simulation time: 0 hr 1 min 0 sec) 
Heartbeat CPU 0 instructions: 20000001 cycles: 7284434 heartbeat IPC: 2.74563 cumulative IPC: 2.74558 (Simulation time: 0 hr 1 min 54 sec) 

Warmup complete CPU 0 instructions: 25000001 cycles: 9105488 (Simulation time: 0 hr 2 min 17 sec) 

Heartbeat CPU 0 instructions: 30000003 cycles: 23373869 heartbeat IPC: 0.621526 cumulative IPC: 0.350425 (Simulation time: 0 hr 3 min 39 sec) 
Heartbeat CPU 0 instructions: 40000001 cycles: 51909572 heartbeat IPC: 0.350438 cumulative IPC: 0.350434 (Simulation time: 0 hr 6 min 8 sec) 
Heartbeat CPU 0 instructions: 50000001 cycles: 80443786 heartbeat IPC: 0.350456 cumulative IPC: 0.350443 (Simulation time: 0 hr 8 min 18 sec) 
Finished CPU 0 instructions: 25000000 cycles: 71338298 cumulative IPC: 0.350443 (Simulation time: 0 hr 8 min 18 sec) 

ChampSim completed all CPUs

Region of Interest Statistics

CPU 0 cumulative IPC: 0.350443 instructions: 25000000 cycles: 71338298
cpu0_DTLB TOTAL     ACCESS:    7858940  HIT:    7829731  MISS:      29209
cpu0_DTLB LOAD      ACCESS:    7303444  HIT:    7279102  MISS:      24342
cpu0_DTLB RFO       ACCESS:     555496  HIT:     550629  MISS:       4867
cpu0_DTLB PREFETCH  ACCESS:          0  HIT:          0  MISS:          0
cpu0_DTLB WRITEBACK ACCESS:          0  HIT:          0  MISS:          0
cpu0_DTLB TRANSLATION ACCESS:          0  HIT:          0  MISS:          0
cpu0_DTLB PREFETCH  REQUESTED:          0  ISSUED:          0  USEFUL:          0  USELESS:          0
cpu0_DTLB AVERAGE MISS LATENCY: 73.628 cycles
cpu0_ITLB TOTAL     ACCESS:    2203935  HIT:    2203935  MISS:          0
cpu0_ITLB LOAD      ACCESS:    2203935  HIT:    2203935  MISS:          0
cpu0_ITLB RFO       ACCESS:          0  HIT:          0  MISS:          0
cpu0_ITLB PREFETCH  ACCESS:          0  HIT:          0  MISS:          0
cpu0_ITLB WRITEBACK ACCESS:          0  HIT:          0  MISS:          0
cpu0_ITLB TRANSLATION ACCESS:          0  HIT:          0  MISS:          0
cpu0_ITLB PREFETCH  REQUESTED:          0  ISSUED:          0  USEFUL:          0  USELESS:          0
cpu0_ITLB AVERAGE MISS LATENCY: -nan cycles
cpu0_STLB TOTAL     ACCESS:      29209  HIT:      21785  MISS:       7424
cpu0_STLB LOAD      ACCESS:      24342  HIT:      17108  MISS:       7234
cpu0_STLB RFO       ACCESS:       4867  HIT:       4677  MISS:        190
cpu0_STLB PREFETCH  ACCESS:          0  HIT:          0  MISS:          0
cpu0_STLB WRITEBACK ACCESS:          0  HIT:          0  MISS:          0
cpu0_STLB TRANSLATION ACCESS:          0  HIT:          0  MISS:          0
cpu0_STLB PREFETCH  REQUESTED:          0  ISSUED:          0  USEFUL:          0  USELESS:          0
cpu0_STLB AVERAGE MISS LATENCY: 253.484 cycles
cpu0_L1D TOTAL     ACCESS:    7902910  HIT:    7402658  MISS:     500252
cpu0_L1D LOAD      ACCESS:    6506452  HIT:    6018825  MISS:     487627
cpu0_L1D RFO       ACCESS:    1389034  HIT:    1376853  MISS:      12181
cpu0_L1D PREFETCH  ACCESS:          0  HIT:          0  MISS:          0
cpu0_L1D WRITEBACK ACCESS:          0  HIT:          0  MISS:          0
cpu0_L1D TRANSLATION ACCESS:       7424  HIT:       6980  MISS:        444
cpu0_L1D PREFETCH  REQUESTED:          0  ISSUED:          0  USEFUL:          0  USELESS:          0
cpu0_L1D AVERAGE MISS LATENCY: 1156.98 cycles
cpu0_L2C TOTAL     ACCESS:    1205802  HIT:     716054  MISS:     489748
cpu0_L2C LOAD      ACCESS:     487627  HIT:      24543  MISS:     463084
cpu0_L2C RFO       ACCESS:      12181  HIT:          0  MISS:      12181
cpu0_L2C PREFETCH  ACCESS:     693183  HIT:     678717  MISS:      14466
cpu0_L2C WRITEBACK ACCESS:      12367  HIT:      12367  MISS:          0
cpu0_L2C TRANSLATION ACCESS:        444  HIT:        427  MISS:         17
cpu0_L2C PREFETCH  REQUESTED:     748745  ISSUED:     702678  USEFUL:      14467  USELESS:          2
cpu0_L2C AVERAGE MISS LATENCY: 1194.29 cycles
LLC TOTAL     ACCESS:     508804  HIT:      19250  MISS:     489554
LLC LOAD      ACCESS:     463084  HIT:        193  MISS:     462891
LLC RFO       ACCESS:      12181  HIT:          0  MISS:      12181
LLC PREFETCH  ACCESS:      21314  HIT:       6849  MISS:      14465
LLC WRITEBACK ACCESS:      12208  HIT:      12205  MISS:          3
LLC TRANSLATION ACCESS:         17  HIT:          3  MISS:         14
LLC PREFETCH  REQUESTED:          0  ISSUED:          0  USEFUL:          0  USELESS:          0
LLC AVERAGE MISS LATENCY: 1193.6 cycles

DRAM Statistics
 CHANNEL 0
 RQ ROW_BUFFER_HIT:         22  ROW_BUFFER_MISS:     489529
 DBUS AVG_CONGESTED_CYCLE:    3.99946
 WQ ROW_BUFFER_HIT:       2881  ROW_BUFFER_MISS:       9575  FULL:          0


CPU 0 Branch Prediction Accuracy: 62.4635% MPKI: 9.3696 Average ROB Occupancy at Mispredict: 291.155
Branch type MPKI
BRANCH_DIRECT_JUMP: 0
BRANCH_INDIRECT: 0
BRANCH_CONDITIONAL: 9.3696
BRANCH_DIRECT_CALL: 0
BRANCH_INDIRECT_CALL: 0
BRANCH_RETURN: 0

