
*** ChampSim Multicore Out-of-Order Simulator ***

Warmup Instructions: 25000000
Simulation Instructions: 25000000
Number of CPUs: 1
Off-chip DRAM Size: 4 GiB Channels: 1 Width: 64-bit Data Rate: 3200 MT/s

VirtualMemory physical capacity: 8588881920 num_ppages: 2096895
VirtualMemory page size: 4096 log2_page_size: 12

CPU 0 runs /home/yogo/Documents/clonos/pa2-race-of-prefetchers-template/traces/603.bwaves_s-1740B.champsimtrace.xz
CPU 0 Bimodal branch predictor
Basic BTB sets: 1024 ways: 8 indirect buffer size: 4096 RAS size: 64
cpu0_L2C Hybrid Stream + IP-based stride prefetcher
WARNING: The extended signature CACHE::prefetch_line(ip, base_addr, pf_addr, fill_this_level, prefetch_metadata) is deprecated.
WARNING: Use CACHE::prefetch_line(pf_addr, fill_this_level, prefetch_metadata) instead.
Heartbeat CPU 0 instructions: 10000001 cycles: 3642288 heartbeat IPC: 2.74553 cumulative IPC: 2.74553 (Simulation time: 0 hr 1 min 12 sec) 
Heartbeat CPU 0 instructions: 20000001 cycles: 7284434 heartbeat IPC: 2.74563 cumulative IPC: 2.74558 (Simulation time: 0 hr 2 min 6 sec) 

Warmup complete CPU 0 instructions: 25000001 cycles: 9105488 (Simulation time: 0 hr 2 min 30 sec) 

Heartbeat CPU 0 instructions: 30000003 cycles: 23539329 heartbeat IPC: 0.615199 cumulative IPC: 0.346408 (Simulation time: 0 hr 4 min 23 sec) 
Heartbeat CPU 0 instructions: 40000001 cycles: 52395217 heartbeat IPC: 0.34655 cumulative IPC: 0.346503 (Simulation time: 0 hr 6 min 47 sec) 
Heartbeat CPU 0 instructions: 50000001 cycles: 81241091 heartbeat IPC: 0.34667 cumulative IPC: 0.34657 (Simulation time: 0 hr 8 min 53 sec) 
Finished CPU 0 instructions: 25000000 cycles: 72135603 cumulative IPC: 0.34657 (Simulation time: 0 hr 8 min 53 sec) 

ChampSim completed all CPUs

Region of Interest Statistics

CPU 0 cumulative IPC: 0.34657 instructions: 25000000 cycles: 72135603
cpu0_DTLB TOTAL     ACCESS:    7858725  HIT:    7829515  MISS:      29210
cpu0_DTLB LOAD      ACCESS:    7303238  HIT:    7278894  MISS:      24344
cpu0_DTLB RFO       ACCESS:     555487  HIT:     550621  MISS:       4866
cpu0_DTLB PREFETCH  ACCESS:          0  HIT:          0  MISS:          0
cpu0_DTLB WRITEBACK ACCESS:          0  HIT:          0  MISS:          0
cpu0_DTLB TRANSLATION ACCESS:          0  HIT:          0  MISS:          0
cpu0_DTLB PREFETCH  REQUESTED:          0  ISSUED:          0  USEFUL:          0  USELESS:          0
cpu0_DTLB AVERAGE MISS LATENCY: 73.6638 cycles
cpu0_ITLB TOTAL     ACCESS:    2204347  HIT:    2204347  MISS:          0
cpu0_ITLB LOAD      ACCESS:    2204347  HIT:    2204347  MISS:          0
cpu0_ITLB RFO       ACCESS:          0  HIT:          0  MISS:          0
cpu0_ITLB PREFETCH  ACCESS:          0  HIT:          0  MISS:          0
cpu0_ITLB WRITEBACK ACCESS:          0  HIT:          0  MISS:          0
cpu0_ITLB TRANSLATION ACCESS:          0  HIT:          0  MISS:          0
cpu0_ITLB PREFETCH  REQUESTED:          0  ISSUED:          0  USEFUL:          0  USELESS:          0
cpu0_ITLB AVERAGE MISS LATENCY: -nan cycles
cpu0_STLB TOTAL     ACCESS:      29210  HIT:      21786  MISS:       7424
cpu0_STLB LOAD      ACCESS:      24344  HIT:      17110  MISS:       7234
cpu0_STLB RFO       ACCESS:       4866  HIT:       4676  MISS:        190
cpu0_STLB PREFETCH  ACCESS:          0  HIT:          0  MISS:          0
cpu0_STLB WRITEBACK ACCESS:          0  HIT:          0  MISS:          0
cpu0_STLB TRANSLATION ACCESS:          0  HIT:          0  MISS:          0
cpu0_STLB PREFETCH  REQUESTED:          0  ISSUED:          0  USEFUL:          0  USELESS:          0
cpu0_STLB AVERAGE MISS LATENCY: 253.634 cycles
cpu0_L1D TOTAL     ACCESS:    7902518  HIT:    7402266  MISS:     500252
cpu0_L1D LOAD      ACCESS:    6506083  HIT:    6018456  MISS:     487627
cpu0_L1D RFO       ACCESS:    1389011  HIT:    1376830  MISS:      12181
cpu0_L1D PREFETCH  ACCESS:          0  HIT:          0  MISS:          0
cpu0_L1D WRITEBACK ACCESS:          0  HIT:          0  MISS:          0
cpu0_L1D TRANSLATION ACCESS:       7424  HIT:       6980  MISS:        444
cpu0_L1D PREFETCH  REQUESTED:          0  ISSUED:          0  USEFUL:          0  USELESS:          0
cpu0_L1D AVERAGE MISS LATENCY: 1165.8 cycles
cpu0_L2C TOTAL     ACCESS:    1594022  HIT:    1083561  MISS:     510461
cpu0_L2C LOAD      ACCESS:     487627  HIT:      24465  MISS:     463162
cpu0_L2C RFO       ACCESS:      12181  HIT:          0  MISS:      12181
cpu0_L2C PREFETCH  ACCESS:    1081403  HIT:    1046302  MISS:      35101
cpu0_L2C WRITEBACK ACCESS:      12367  HIT:      12367  MISS:          0
cpu0_L2C TRANSLATION ACCESS:        444  HIT:        427  MISS:         17
cpu0_L2C PREFETCH  REQUESTED:    1180934  ISSUED:    1125299  USEFUL:      29534  USELESS:       5587
cpu0_L2C AVERAGE MISS LATENCY: 1189.17 cycles
LLC TOTAL     ACCESS:     556132  HIT:      40247  MISS:     515885
LLC LOAD      ACCESS:     463162  HIT:        278  MISS:     462884
LLC RFO       ACCESS:      12181  HIT:          0  MISS:      12181
LLC PREFETCH  ACCESS:      68575  HIT:      27774  MISS:      40801
LLC WRITEBACK ACCESS:      12197  HIT:      12193  MISS:          4
LLC TRANSLATION ACCESS:         17  HIT:          2  MISS:         15
LLC PREFETCH  REQUESTED:          0  ISSUED:          0  USEFUL:          0  USELESS:          0
LLC AVERAGE MISS LATENCY: 1231.73 cycles

DRAM Statistics
 CHANNEL 0
 RQ ROW_BUFFER_HIT:       6990  ROW_BUFFER_MISS:     508891
 DBUS AVG_CONGESTED_CYCLE:    3.99919
 WQ ROW_BUFFER_HIT:       2701  ROW_BUFFER_MISS:       9780  FULL:          0


CPU 0 Branch Prediction Accuracy: 62.4635% MPKI: 9.3696 Average ROB Occupancy at Mispredict: 291.173
Branch type MPKI
BRANCH_DIRECT_JUMP: 0
BRANCH_INDIRECT: 0
BRANCH_CONDITIONAL: 9.3696
BRANCH_DIRECT_CALL: 0
BRANCH_INDIRECT_CALL: 0
BRANCH_RETURN: 0

