
*** ChampSim Multicore Out-of-Order Simulator ***

Warmup Instructions: 25000000
Simulation Instructions: 25000000
Number of CPUs: 1
Off-chip DRAM Size: 4 GiB Channels: 1 Width: 64-bit Data Rate: 3200 MT/s

VirtualMemory physical capacity: 8588881920 num_ppages: 2096895
VirtualMemory page size: 4096 log2_page_size: 12

CPU 0 runs /home/vedant/Practicals/AdvanceCA/Assignments/Assignment2/traces/603.bwaves_s-1740B.champsimtrace.xz
CPU 0 Bimodal branch predictor
Basic BTB sets: 1024 ways: 8 indirect buffer size: 4096 RAS size: 64
cpu0_L2C Hybrid Stream + IP-based stride prefetcher
WARNING: The extended signature CACHE::prefetch_line(ip, base_addr, pf_addr, fill_this_level, prefetch_metadata) is deprecated.
WARNING: Use CACHE::prefetch_line(pf_addr, fill_this_level, prefetch_metadata) instead.
Heartbeat CPU 0 instructions: 10000001 cycles: 3642288 heartbeat IPC: 2.74553 cumulative IPC: 2.74553 (Simulation time: 0 hr 1 min 3 sec) 
Heartbeat CPU 0 instructions: 20000001 cycles: 7284434 heartbeat IPC: 2.74563 cumulative IPC: 2.74558 (Simulation time: 0 hr 2 min 5 sec) 

Warmup complete CPU 0 instructions: 25000001 cycles: 9105488 (Simulation time: 0 hr 2 min 36 sec) 

Heartbeat CPU 0 instructions: 30000003 cycles: 23454359 heartbeat IPC: 0.618432 cumulative IPC: 0.34846 (Simulation time: 0 hr 4 min 5 sec) 
Heartbeat CPU 0 instructions: 40000001 cycles: 52144442 heartbeat IPC: 0.348552 cumulative IPC: 0.348521 (Simulation time: 0 hr 6 min 43 sec) 
Heartbeat CPU 0 instructions: 50000001 cycles: 80823926 heartbeat IPC: 0.348681 cumulative IPC: 0.348585 (Simulation time: 0 hr 8 min 56 sec) 
Finished CPU 0 instructions: 25000000 cycles: 71718438 cumulative IPC: 0.348585 (Simulation time: 0 hr 8 min 56 sec) 

ChampSim completed all CPUs

Region of Interest Statistics

CPU 0 cumulative IPC: 0.348585 instructions: 25000000 cycles: 71718438
cpu0_DTLB TOTAL     ACCESS:    7858690  HIT:    7829480  MISS:      29210
cpu0_DTLB LOAD      ACCESS:    7303261  HIT:    7278917  MISS:      24344
cpu0_DTLB RFO       ACCESS:     555429  HIT:     550563  MISS:       4866
cpu0_DTLB PREFETCH  ACCESS:          0  HIT:          0  MISS:          0
cpu0_DTLB WRITEBACK ACCESS:          0  HIT:          0  MISS:          0
cpu0_DTLB TRANSLATION ACCESS:          0  HIT:          0  MISS:          0
cpu0_DTLB PREFETCH  REQUESTED:          0  ISSUED:          0  USEFUL:          0  USELESS:          0
cpu0_DTLB AVERAGE MISS LATENCY: 73.6637 cycles
cpu0_ITLB TOTAL     ACCESS:    2203959  HIT:    2203959  MISS:          0
cpu0_ITLB LOAD      ACCESS:    2203959  HIT:    2203959  MISS:          0
cpu0_ITLB RFO       ACCESS:          0  HIT:          0  MISS:          0
cpu0_ITLB PREFETCH  ACCESS:          0  HIT:          0  MISS:          0
cpu0_ITLB WRITEBACK ACCESS:          0  HIT:          0  MISS:          0
cpu0_ITLB TRANSLATION ACCESS:          0  HIT:          0  MISS:          0
cpu0_ITLB PREFETCH  REQUESTED:          0  ISSUED:          0  USEFUL:          0  USELESS:          0
cpu0_ITLB AVERAGE MISS LATENCY: -nan cycles
cpu0_STLB TOTAL     ACCESS:      29210  HIT:      21786  MISS:       7424
cpu0_STLB LOAD      ACCESS:      24344  HIT:      17110  MISS:       7234
cpu0_STLB RFO       ACCESS:       4866  HIT:       4676  MISS:        190
cpu0_STLB PREFETCH  ACCESS:          0  HIT:          0  MISS:          0
cpu0_STLB WRITEBACK ACCESS:          0  HIT:          0  MISS:          0
cpu0_STLB TRANSLATION ACCESS:          0  HIT:          0  MISS:          0
cpu0_STLB PREFETCH  REQUESTED:          0  ISSUED:          0  USEFUL:          0  USELESS:          0
cpu0_STLB AVERAGE MISS LATENCY: 253.633 cycles
cpu0_L1D TOTAL     ACCESS:    7902557  HIT:    7402305  MISS:     500252
cpu0_L1D LOAD      ACCESS:    6506109  HIT:    6018482  MISS:     487627
cpu0_L1D RFO       ACCESS:    1389024  HIT:    1376843  MISS:      12181
cpu0_L1D PREFETCH  ACCESS:          0  HIT:          0  MISS:          0
cpu0_L1D WRITEBACK ACCESS:          0  HIT:          0  MISS:          0
cpu0_L1D TRANSLATION ACCESS:       7424  HIT:       6980  MISS:        444
cpu0_L1D PREFETCH  REQUESTED:          0  ISSUED:          0  USEFUL:          0  USELESS:          0
cpu0_L1D AVERAGE MISS LATENCY: 1162.14 cycles
cpu0_L2C TOTAL     ACCESS:    1186010  HIT:     687039  MISS:     498971
cpu0_L2C LOAD      ACCESS:     487627  HIT:      24513  MISS:     463114
cpu0_L2C RFO       ACCESS:      12181  HIT:          0  MISS:      12181
cpu0_L2C PREFETCH  ACCESS:     673391  HIT:     649732  MISS:      23659
cpu0_L2C WRITEBACK ACCESS:      12367  HIT:      12367  MISS:          0
cpu0_L2C TRANSLATION ACCESS:        444  HIT:        427  MISS:         17
cpu0_L2C PREFETCH  REQUESTED:     735147  ISSUED:     691930  USEFUL:      17926  USELESS:       5696
cpu0_L2C AVERAGE MISS LATENCY: 1199.83 cycles
LLC TOTAL     ACCESS:     522141  HIT:      20722  MISS:     501419
LLC LOAD      ACCESS:     463114  HIT:        227  MISS:     462887
LLC RFO       ACCESS:      12181  HIT:          0  MISS:      12181
LLC PREFETCH  ACCESS:      34623  HIT:       8291  MISS:      26332
LLC WRITEBACK ACCESS:      12206  HIT:      12202  MISS:          4
LLC TRANSLATION ACCESS:         17  HIT:          2  MISS:         15
LLC PREFETCH  REQUESTED:          0  ISSUED:          0  USEFUL:          0  USELESS:          0
LLC AVERAGE MISS LATENCY: 1210.21 cycles

DRAM Statistics
 CHANNEL 0
 RQ ROW_BUFFER_HIT:         28  ROW_BUFFER_MISS:     501387
 DBUS AVG_CONGESTED_CYCLE:    3.99948
 WQ ROW_BUFFER_HIT:       2730  ROW_BUFFER_MISS:       9741  FULL:          0


CPU 0 Branch Prediction Accuracy: 62.4635% MPKI: 9.3696 Average ROB Occupancy at Mispredict: 291.173
Branch type MPKI
BRANCH_DIRECT_JUMP: 0
BRANCH_INDIRECT: 0
BRANCH_CONDITIONAL: 9.3696
BRANCH_DIRECT_CALL: 0
BRANCH_INDIRECT_CALL: 0
BRANCH_RETURN: 0

