
*** ChampSim Multicore Out-of-Order Simulator ***

Warmup Instructions: 25000000
Simulation Instructions: 25000000
Number of CPUs: 1
Off-chip DRAM Size: 4 GiB Channels: 1 Width: 64-bit Data Rate: 3200 MT/s

VirtualMemory physical capacity: 8588881920 num_ppages: 2096895
VirtualMemory page size: 4096 log2_page_size: 12

CPU 0 runs /home/yogo/Documents/clonos/pa2-race-of-prefetchers-template/traces/603.bwaves_s-1740B.champsimtrace.xz
CPU 0 Bimodal branch predictor
Basic BTB sets: 1024 ways: 8 indirect buffer size: 4096 RAS size: 64
cpu0_L2C Hybrid Stream + IP-based stride prefetcher
WARNING: The extended signature CACHE::prefetch_line(ip, base_addr, pf_addr, fill_this_level, prefetch_metadata) is deprecated.
WARNING: Use CACHE::prefetch_line(pf_addr, fill_this_level, prefetch_metadata) instead.
Heartbeat CPU 0 instructions: 10000001 cycles: 3642288 heartbeat IPC: 2.74553 cumulative IPC: 2.74553 (Simulation time: 0 hr 0 min 55 sec) 
Heartbeat CPU 0 instructions: 20000001 cycles: 7284434 heartbeat IPC: 2.74563 cumulative IPC: 2.74558 (Simulation time: 0 hr 2 min 5 sec) 

Warmup complete CPU 0 instructions: 25000001 cycles: 9105488 (Simulation time: 0 hr 2 min 51 sec) 

Heartbeat CPU 0 instructions: 30000003 cycles: 23519744 heartbeat IPC: 0.615942 cumulative IPC: 0.346879 (Simulation time: 0 hr 4 min 27 sec) 
Heartbeat CPU 0 instructions: 40000001 cycles: 52346867 heartbeat IPC: 0.346895 cumulative IPC: 0.34689 (Simulation time: 0 hr 7 min 12 sec) 
Heartbeat CPU 0 instructions: 50000001 cycles: 81160278 heartbeat IPC: 0.347061 cumulative IPC: 0.346958 (Simulation time: 0 hr 9 min 25 sec) 
Finished CPU 0 instructions: 25000000 cycles: 72054790 cumulative IPC: 0.346958 (Simulation time: 0 hr 9 min 25 sec) 

ChampSim completed all CPUs

Region of Interest Statistics

CPU 0 cumulative IPC: 0.346958 instructions: 25000000 cycles: 72054790
cpu0_DTLB TOTAL     ACCESS:    7858731  HIT:    7829523  MISS:      29208
cpu0_DTLB LOAD      ACCESS:    7303254  HIT:    7278912  MISS:      24342
cpu0_DTLB RFO       ACCESS:     555477  HIT:     550611  MISS:       4866
cpu0_DTLB PREFETCH  ACCESS:          0  HIT:          0  MISS:          0
cpu0_DTLB WRITEBACK ACCESS:          0  HIT:          0  MISS:          0
cpu0_DTLB TRANSLATION ACCESS:          0  HIT:          0  MISS:          0
cpu0_DTLB PREFETCH  REQUESTED:          0  ISSUED:          0  USEFUL:          0  USELESS:          0
cpu0_DTLB AVERAGE MISS LATENCY: 73.707 cycles
cpu0_ITLB TOTAL     ACCESS:    2204556  HIT:    2204556  MISS:          0
cpu0_ITLB LOAD      ACCESS:    2204556  HIT:    2204556  MISS:          0
cpu0_ITLB RFO       ACCESS:          0  HIT:          0  MISS:          0
cpu0_ITLB PREFETCH  ACCESS:          0  HIT:          0  MISS:          0
cpu0_ITLB WRITEBACK ACCESS:          0  HIT:          0  MISS:          0
cpu0_ITLB TRANSLATION ACCESS:          0  HIT:          0  MISS:          0
cpu0_ITLB PREFETCH  REQUESTED:          0  ISSUED:          0  USEFUL:          0  USELESS:          0
cpu0_ITLB AVERAGE MISS LATENCY: -nan cycles
cpu0_STLB TOTAL     ACCESS:      29208  HIT:      21784  MISS:       7424
cpu0_STLB LOAD      ACCESS:      24342  HIT:      17108  MISS:       7234
cpu0_STLB RFO       ACCESS:       4866  HIT:       4676  MISS:        190
cpu0_STLB PREFETCH  ACCESS:          0  HIT:          0  MISS:          0
cpu0_STLB WRITEBACK ACCESS:          0  HIT:          0  MISS:          0
cpu0_STLB TRANSLATION ACCESS:          0  HIT:          0  MISS:          0
cpu0_STLB PREFETCH  REQUESTED:          0  ISSUED:          0  USEFUL:          0  USELESS:          0
cpu0_STLB AVERAGE MISS LATENCY: 253.786 cycles
cpu0_L1D TOTAL     ACCESS:    7902457  HIT:    7402205  MISS:     500252
cpu0_L1D LOAD      ACCESS:    6506005  HIT:    6018378  MISS:     487627
cpu0_L1D RFO       ACCESS:    1389028  HIT:    1376847  MISS:      12181
cpu0_L1D PREFETCH  ACCESS:          0  HIT:          0  MISS:          0
cpu0_L1D WRITEBACK ACCESS:          0  HIT:          0  MISS:          0
cpu0_L1D TRANSLATION ACCESS:       7424  HIT:       6980  MISS:        444
cpu0_L1D PREFETCH  REQUESTED:          0  ISSUED:          0  USEFUL:          0  USELESS:          0
cpu0_L1D AVERAGE MISS LATENCY: 1165.4 cycles
cpu0_L2C TOTAL     ACCESS:    1594112  HIT:    1083725  MISS:     510387
cpu0_L2C LOAD      ACCESS:     487627  HIT:      24466  MISS:     463161
cpu0_L2C RFO       ACCESS:      12181  HIT:          0  MISS:      12181
cpu0_L2C PREFETCH  ACCESS:    1081493  HIT:    1046466  MISS:      35027
cpu0_L2C WRITEBACK ACCESS:      12367  HIT:      12367  MISS:          0
cpu0_L2C TRANSLATION ACCESS:        444  HIT:        426  MISS:         18
cpu0_L2C PREFETCH  REQUESTED:    1180920  ISSUED:    1125200  USEFUL:      29462  USELESS:       5581
cpu0_L2C AVERAGE MISS LATENCY: 1188.35 cycles
LLC TOTAL     ACCESS:     555970  HIT:      40174  MISS:     515796
LLC LOAD      ACCESS:     463161  HIT:        277  MISS:     462884
LLC RFO       ACCESS:      12181  HIT:          0  MISS:      12181
LLC PREFETCH  ACCESS:      68410  HIT:      27699  MISS:      40711
LLC WRITEBACK ACCESS:      12200  HIT:      12196  MISS:          4
LLC TRANSLATION ACCESS:         18  HIT:          2  MISS:         16
LLC PREFETCH  REQUESTED:          0  ISSUED:          0  USEFUL:          0  USELESS:          0
LLC AVERAGE MISS LATENCY: 1230.33 cycles

DRAM Statistics
 CHANNEL 0
 RQ ROW_BUFFER_HIT:        875  ROW_BUFFER_MISS:     514917
 DBUS AVG_CONGESTED_CYCLE:    3.99847
 WQ ROW_BUFFER_HIT:       2600  ROW_BUFFER_MISS:       9882  FULL:          0


CPU 0 Branch Prediction Accuracy: 62.4635% MPKI: 9.3696 Average ROB Occupancy at Mispredict: 291.17
Branch type MPKI
BRANCH_DIRECT_JUMP: 0
BRANCH_INDIRECT: 0
BRANCH_CONDITIONAL: 9.3696
BRANCH_DIRECT_CALL: 0
BRANCH_INDIRECT_CALL: 0
BRANCH_RETURN: 0

