
*** ChampSim Multicore Out-of-Order Simulator ***

Warmup Instructions: 25000000
Simulation Instructions: 25000000
Number of CPUs: 1
Off-chip DRAM Size: 4 GiB Channels: 1 Width: 64-bit Data Rate: 3200 MT/s

VirtualMemory physical capacity: 8588881920 num_ppages: 2096895
VirtualMemory page size: 4096 log2_page_size: 12

CPU 0 runs /home/yogo/Documents/clonos/pa2-race-of-prefetchers-template/traces/619.lbm_s-2677B.champsimtrace.xz
CPU 0 Bimodal branch predictor
Basic BTB sets: 1024 ways: 8 indirect buffer size: 4096 RAS size: 64
cpu0_L2C Hybrid Stream + IP-based stride prefetcher
WARNING: The extended signature CACHE::prefetch_line(ip, base_addr, pf_addr, fill_this_level, prefetch_metadata) is deprecated.
WARNING: Use CACHE::prefetch_line(pf_addr, fill_this_level, prefetch_metadata) instead.
Heartbeat CPU 0 instructions: 10000001 cycles: 2596580 heartbeat IPC: 3.85122 cumulative IPC: 3.85122 (Simulation time: 0 hr 0 min 42 sec) 
Heartbeat CPU 0 instructions: 20000001 cycles: 5188364 heartbeat IPC: 3.85835 cumulative IPC: 3.85478 (Simulation time: 0 hr 1 min 21 sec) 

Warmup complete CPU 0 instructions: 25000004 cycles: 6484664 (Simulation time: 0 hr 1 min 41 sec) 

Heartbeat CPU 0 instructions: 30000002 cycles: 30183604 heartbeat IPC: 0.400076 cumulative IPC: 0.21098 (Simulation time: 0 hr 4 min 12 sec) 
Heartbeat CPU 0 instructions: 40000004 cycles: 77590088 heartbeat IPC: 0.210942 cumulative IPC: 0.210954 (Simulation time: 0 hr 7 min 57 sec) 
Heartbeat CPU 0 instructions: 50000001 cycles: 126014965 heartbeat IPC: 0.206505 cumulative IPC: 0.209152 (Simulation time: 0 hr 11 min 5 sec) 
Finished CPU 0 instructions: 25000002 cycles: 119530302 cumulative IPC: 0.209152 (Simulation time: 0 hr 11 min 5 sec) 

ChampSim completed all CPUs

Region of Interest Statistics

CPU 0 cumulative IPC: 0.209152 instructions: 25000002 cycles: 119530302
cpu0_DTLB TOTAL     ACCESS:    4451224  HIT:    4417177  MISS:      34047
cpu0_DTLB LOAD      ACCESS:    1981294  HIT:    1976673  MISS:       4621
cpu0_DTLB RFO       ACCESS:    2469930  HIT:    2440504  MISS:      29426
cpu0_DTLB PREFETCH  ACCESS:          0  HIT:          0  MISS:          0
cpu0_DTLB WRITEBACK ACCESS:          0  HIT:          0  MISS:          0
cpu0_DTLB TRANSLATION ACCESS:          0  HIT:          0  MISS:          0
cpu0_DTLB PREFETCH  REQUESTED:          0  ISSUED:          0  USEFUL:          0  USELESS:          0
cpu0_DTLB AVERAGE MISS LATENCY: 521.617 cycles
cpu0_ITLB TOTAL     ACCESS:     472587  HIT:     472587  MISS:          0
cpu0_ITLB LOAD      ACCESS:     472587  HIT:     472587  MISS:          0
cpu0_ITLB RFO       ACCESS:          0  HIT:          0  MISS:          0
cpu0_ITLB PREFETCH  ACCESS:          0  HIT:          0  MISS:          0
cpu0_ITLB WRITEBACK ACCESS:          0  HIT:          0  MISS:          0
cpu0_ITLB TRANSLATION ACCESS:          0  HIT:          0  MISS:          0
cpu0_ITLB PREFETCH  REQUESTED:          0  ISSUED:          0  USEFUL:          0  USELESS:          0
cpu0_ITLB AVERAGE MISS LATENCY: -nan cycles
cpu0_L1I TOTAL     ACCESS:     551160  HIT:     551160  MISS:          0
cpu0_L1I LOAD      ACCESS:     551160  HIT:     551160  MISS:          0
cpu0_L1I RFO       ACCESS:          0  HIT:          0  MISS:          0
cpu0_L1I PREFETCH  ACCESS:          0  HIT:          0  MISS:          0
cpu0_L1I WRITEBACK ACCESS:          0  HIT:          0  MISS:          0
cpu0_L1I TRANSLATION ACCESS:          0  HIT:          0  MISS:          0
cpu0_L1I PREFETCH  REQUESTED:          0  ISSUED:          0  USEFUL:          0  USELESS:          0
cpu0_L1I AVERAGE MISS LATENCY: -nan cycles
cpu0_STLB TOTAL     ACCESS:      34047  HIT:      15571  MISS:      18476
cpu0_STLB LOAD      ACCESS:       4621  HIT:          0  MISS:       4621
cpu0_STLB RFO       ACCESS:      29426  HIT:      15571  MISS:      13855
cpu0_STLB PREFETCH  ACCESS:          0  HIT:          0  MISS:          0
cpu0_STLB WRITEBACK ACCESS:          0  HIT:          0  MISS:          0
cpu0_STLB TRANSLATION ACCESS:          0  HIT:          0  MISS:          0
cpu0_STLB PREFETCH  REQUESTED:          0  ISSUED:          0  USEFUL:          0  USELESS:          0
cpu0_STLB AVERAGE MISS LATENCY: 944.496 cycles
cpu0_L1D TOTAL     ACCESS:    5918761  HIT:    3968188  MISS:    1950573
cpu0_L1D LOAD      ACCESS:    1405246  HIT:    1109697  MISS:     295549
cpu0_L1D RFO       ACCESS:    4495989  HIT:    2840974  MISS:    1655015
cpu0_L1D PREFETCH  ACCESS:          0  HIT:          0  MISS:          0
cpu0_L1D WRITEBACK ACCESS:          0  HIT:          0  MISS:          0
cpu0_L1D TRANSLATION ACCESS:      17526  HIT:      17517  MISS:          9
cpu0_L1D PREFETCH  REQUESTED:          0  ISSUED:          0  USEFUL:          0  USELESS:          0
cpu0_L1D AVERAGE MISS LATENCY: 767.72 cycles
cpu0_L2C TOTAL     ACCESS:    4460980  HIT:    3210554  MISS:    1250426
cpu0_L2C LOAD      ACCESS:     295549  HIT:          3  MISS:     295546
cpu0_L2C RFO       ACCESS:    1655015  HIT:     737688  MISS:     917327
cpu0_L2C PREFETCH  ACCESS:     855363  HIT:     817876  MISS:      37487
cpu0_L2C WRITEBACK ACCESS:    1655044  HIT:    1654987  MISS:         57
cpu0_L2C TRANSLATION ACCESS:          9  HIT:          0  MISS:          9
cpu0_L2C PREFETCH  REQUESTED:    1201162  ISSUED:     936251  USEFUL:      37284  USELESS:        200
cpu0_L2C AVERAGE MISS LATENCY: 1219.05 cycles
LLC TOTAL     ACCESS:    2174655  HIT:     955006  MISS:    1219649
LLC LOAD      ACCESS:     295546  HIT:          0  MISS:     295546
LLC RFO       ACCESS:     917262  HIT:      30682  MISS:     886580
LLC PREFETCH  ACCESS:      44377  HIT:       6908  MISS:      37469
LLC WRITEBACK ACCESS:     917461  HIT:     917416  MISS:         45
LLC TRANSLATION ACCESS:          9  HIT:          0  MISS:          9
LLC PREFETCH  REQUESTED:          0  ISSUED:          0  USEFUL:          0  USELESS:          0
LLC AVERAGE MISS LATENCY: 1237.36 cycles

DRAM Statistics
 CHANNEL 0
 RQ ROW_BUFFER_HIT:      33830  ROW_BUFFER_MISS:    1185774
 DBUS AVG_CONGESTED_CYCLE:    4.00307
 WQ ROW_BUFFER_HIT:      13164  ROW_BUFFER_MISS:     873585  FULL:          0


CPU 0 Branch Prediction Accuracy: 95.9842% MPKI: 0.71772 Average ROB Occupancy at Mispredict: 258.812
Branch type MPKI
BRANCH_DIRECT_JUMP: 0
BRANCH_INDIRECT: 0
BRANCH_CONDITIONAL: 0.71772
BRANCH_DIRECT_CALL: 0
BRANCH_INDIRECT_CALL: 0
BRANCH_RETURN: 0

