
*** ChampSim Multicore Out-of-Order Simulator ***

Warmup Instructions: 25000000
Simulation Instructions: 25000000
Number of CPUs: 1
Off-chip DRAM Size: 4 GiB Channels: 1 Width: 64-bit Data Rate: 3200 MT/s

VirtualMemory physical capacity: 8588881920 num_ppages: 2096895
VirtualMemory page size: 4096 log2_page_size: 12

CPU 0 runs /home/yogo/Documents/clonos/pa2-race-of-prefetchers-template/traces/619.lbm_s-2677B.champsimtrace.xz
CPU 0 Bimodal branch predictor
Basic BTB sets: 1024 ways: 8 indirect buffer size: 4096 RAS size: 64
cpu0_L2C Hybrid Stream + IP-based stride prefetcher
WARNING: The extended signature CACHE::prefetch_line(ip, base_addr, pf_addr, fill_this_level, prefetch_metadata) is deprecated.
WARNING: Use CACHE::prefetch_line(pf_addr, fill_this_level, prefetch_metadata) instead.
Heartbeat CPU 0 instructions: 10000001 cycles: 2596707 heartbeat IPC: 3.85103 cumulative IPC: 3.85103 (Simulation time: 0 hr 0 min 40 sec) 
Heartbeat CPU 0 instructions: 20000001 cycles: 5188695 heartbeat IPC: 3.85804 cumulative IPC: 3.85453 (Simulation time: 0 hr 1 min 17 sec) 

Warmup complete CPU 0 instructions: 25000004 cycles: 6485011 (Simulation time: 0 hr 1 min 42 sec) 

Heartbeat CPU 0 instructions: 30000002 cycles: 30270339 heartbeat IPC: 0.398698 cumulative IPC: 0.210214 (Simulation time: 0 hr 4 min 46 sec) 
Heartbeat CPU 0 instructions: 40000004 cycles: 77853881 heartbeat IPC: 0.210157 cumulative IPC: 0.210176 (Simulation time: 0 hr 8 min 15 sec) 
Heartbeat CPU 0 instructions: 50000001 cycles: 126523710 heartbeat IPC: 0.205466 cumulative IPC: 0.208266 (Simulation time: 0 hr 11 min 5 sec) 
Finished CPU 0 instructions: 25000002 cycles: 120038700 cumulative IPC: 0.208266 (Simulation time: 0 hr 11 min 5 sec) 

ChampSim completed all CPUs

Region of Interest Statistics

CPU 0 cumulative IPC: 0.208266 instructions: 25000002 cycles: 120038700
cpu0_DTLB TOTAL     ACCESS:    4450998  HIT:    4416951  MISS:      34047
cpu0_DTLB LOAD      ACCESS:    1981350  HIT:    1976729  MISS:       4621
cpu0_DTLB RFO       ACCESS:    2469648  HIT:    2440222  MISS:      29426
cpu0_DTLB PREFETCH  ACCESS:          0  HIT:          0  MISS:          0
cpu0_DTLB WRITEBACK ACCESS:          0  HIT:          0  MISS:          0
cpu0_DTLB TRANSLATION ACCESS:          0  HIT:          0  MISS:          0
cpu0_DTLB PREFETCH  REQUESTED:          0  ISSUED:          0  USEFUL:          0  USELESS:          0
cpu0_DTLB AVERAGE MISS LATENCY: 527.815 cycles
cpu0_ITLB TOTAL     ACCESS:     471958  HIT:     471958  MISS:          0
cpu0_ITLB LOAD      ACCESS:     471958  HIT:     471958  MISS:          0
cpu0_ITLB RFO       ACCESS:          0  HIT:          0  MISS:          0
cpu0_ITLB PREFETCH  ACCESS:          0  HIT:          0  MISS:          0
cpu0_ITLB WRITEBACK ACCESS:          0  HIT:          0  MISS:          0
cpu0_ITLB TRANSLATION ACCESS:          0  HIT:          0  MISS:          0
cpu0_ITLB PREFETCH  REQUESTED:          0  ISSUED:          0  USEFUL:          0  USELESS:          0
cpu0_ITLB AVERAGE MISS LATENCY: -nan cycles
cpu0_L1I TOTAL     ACCESS:     552077  HIT:     552077  MISS:          0
cpu0_L1I LOAD      ACCESS:     552077  HIT:     552077  MISS:          0
cpu0_L1I RFO       ACCESS:          0  HIT:          0  MISS:          0
cpu0_L1I PREFETCH  ACCESS:          0  HIT:          0  MISS:          0
cpu0_L1I WRITEBACK ACCESS:          0  HIT:          0  MISS:          0
cpu0_L1I TRANSLATION ACCESS:          0  HIT:          0  MISS:          0
cpu0_L1I PREFETCH  REQUESTED:          0  ISSUED:          0  USEFUL:          0  USELESS:          0
cpu0_L1I AVERAGE MISS LATENCY: -nan cycles
cpu0_STLB TOTAL     ACCESS:      34047  HIT:      15571  MISS:      18476
cpu0_STLB LOAD      ACCESS:       4621  HIT:          0  MISS:       4621
cpu0_STLB RFO       ACCESS:      29426  HIT:      15571  MISS:      13855
cpu0_STLB PREFETCH  ACCESS:          0  HIT:          0  MISS:          0
cpu0_STLB WRITEBACK ACCESS:          0  HIT:          0  MISS:          0
cpu0_STLB TRANSLATION ACCESS:          0  HIT:          0  MISS:          0
cpu0_STLB PREFETCH  REQUESTED:          0  ISSUED:          0  USEFUL:          0  USELESS:          0
cpu0_STLB AVERAGE MISS LATENCY: 955.916 cycles
cpu0_L1D TOTAL     ACCESS:    5915837  HIT:    3965265  MISS:    1950572
cpu0_L1D LOAD      ACCESS:    1404306  HIT:    1108756  MISS:     295550
cpu0_L1D RFO       ACCESS:    4494009  HIT:    2838996  MISS:    1655013
cpu0_L1D PREFETCH  ACCESS:          0  HIT:          0  MISS:          0
cpu0_L1D WRITEBACK ACCESS:          0  HIT:          0  MISS:          0
cpu0_L1D TRANSLATION ACCESS:      17522  HIT:      17513  MISS:          9
cpu0_L1D PREFETCH  REQUESTED:          0  ISSUED:          0  USEFUL:          0  USELESS:          0
cpu0_L1D AVERAGE MISS LATENCY: 772.004 cycles
cpu0_L2C TOTAL     ACCESS:    4462814  HIT:    3211857  MISS:    1250957
cpu0_L2C LOAD      ACCESS:     295550  HIT:          1  MISS:     295549
cpu0_L2C RFO       ACCESS:    1655012  HIT:     737544  MISS:     917468
cpu0_L2C PREFETCH  ACCESS:     857201  HIT:     819328  MISS:      37873
cpu0_L2C WRITEBACK ACCESS:    1655042  HIT:    1654984  MISS:         58
cpu0_L2C TRANSLATION ACCESS:          9  HIT:          0  MISS:          9
cpu0_L2C PREFETCH  REQUESTED:    1202281  ISSUED:     936150  USEFUL:      37672  USELESS:        203
cpu0_L2C AVERAGE MISS LATENCY: 1224.96 cycles
LLC TOTAL     ACCESS:    2175916  HIT:     955883  MISS:    1220033
LLC LOAD      ACCESS:     295549  HIT:          2  MISS:     295547
LLC RFO       ACCESS:     917417  HIT:      30840  MISS:     886577
LLC PREFETCH  ACCESS:      45347  HIT:       7491  MISS:      37856
LLC WRITEBACK ACCESS:     917594  HIT:     917550  MISS:         44
LLC TRANSLATION ACCESS:          9  HIT:          0  MISS:          9
LLC PREFETCH  REQUESTED:          0  ISSUED:          0  USEFUL:          0  USELESS:          0
LLC AVERAGE MISS LATENCY: 1243.65 cycles

DRAM Statistics
 CHANNEL 0
 RQ ROW_BUFFER_HIT:      44654  ROW_BUFFER_MISS:    1175335
 DBUS AVG_CONGESTED_CYCLE:    4.00267
 WQ ROW_BUFFER_HIT:      15163  ROW_BUFFER_MISS:     871679  FULL:          0


CPU 0 Branch Prediction Accuracy: 95.9842% MPKI: 0.71772 Average ROB Occupancy at Mispredict: 258.968
Branch type MPKI
BRANCH_DIRECT_JUMP: 0
BRANCH_INDIRECT: 0
BRANCH_CONDITIONAL: 0.71772
BRANCH_DIRECT_CALL: 0
BRANCH_INDIRECT_CALL: 0
BRANCH_RETURN: 0

