
*** ChampSim Multicore Out-of-Order Simulator ***

Warmup Instructions: 25000000
Simulation Instructions: 25000000
Number of CPUs: 1
Off-chip DRAM Size: 4 GiB Channels: 1 Width: 64-bit Data Rate: 3200 MT/s

VirtualMemory physical capacity: 8588881920 num_ppages: 2096895
VirtualMemory page size: 4096 log2_page_size: 12

CPU 0 runs /home/yogo/Documents/clonos/pa2-race-of-prefetchers-template/traces/619.lbm_s-2677B.champsimtrace.xz
CPU 0 Bimodal branch predictor
Basic BTB sets: 1024 ways: 8 indirect buffer size: 4096 RAS size: 64
cpu0_L2C Hybrid Stream + IP-based stride prefetcher
WARNING: The extended signature CACHE::prefetch_line(ip, base_addr, pf_addr, fill_this_level, prefetch_metadata) is deprecated.
WARNING: Use CACHE::prefetch_line(pf_addr, fill_this_level, prefetch_metadata) instead.
Heartbeat CPU 0 instructions: 10000001 cycles: 2595462 heartbeat IPC: 3.85288 cumulative IPC: 3.85288 (Simulation time: 0 hr 0 min 41 sec) 
Heartbeat CPU 0 instructions: 20000001 cycles: 5185867 heartbeat IPC: 3.8604 cumulative IPC: 3.85664 (Simulation time: 0 hr 1 min 25 sec) 

Warmup complete CPU 0 instructions: 25000001 cycles: 6481571 (Simulation time: 0 hr 1 min 51 sec) 

Heartbeat CPU 0 instructions: 30000002 cycles: 30119366 heartbeat IPC: 0.401067 cumulative IPC: 0.211526 (Simulation time: 0 hr 3 min 56 sec) 
Heartbeat CPU 0 instructions: 40000004 cycles: 77368456 heartbeat IPC: 0.211644 cumulative IPC: 0.211605 (Simulation time: 0 hr 7 min 38 sec) 
Heartbeat CPU 0 instructions: 50000001 cycles: 125707530 heartbeat IPC: 0.206872 cumulative IPC: 0.209686 (Simulation time: 0 hr 10 min 38 sec) 
Finished CPU 0 instructions: 25000000 cycles: 119225959 cumulative IPC: 0.209686 (Simulation time: 0 hr 10 min 38 sec) 

ChampSim completed all CPUs

Region of Interest Statistics

CPU 0 cumulative IPC: 0.209686 instructions: 25000000 cycles: 119225959
cpu0_DTLB TOTAL     ACCESS:    4450799  HIT:    4416752  MISS:      34047
cpu0_DTLB LOAD      ACCESS:    1980641  HIT:    1976020  MISS:       4621
cpu0_DTLB RFO       ACCESS:    2470158  HIT:    2440732  MISS:      29426
cpu0_DTLB PREFETCH  ACCESS:          0  HIT:          0  MISS:          0
cpu0_DTLB WRITEBACK ACCESS:          0  HIT:          0  MISS:          0
cpu0_DTLB TRANSLATION ACCESS:          0  HIT:          0  MISS:          0
cpu0_DTLB PREFETCH  REQUESTED:          0  ISSUED:          0  USEFUL:          0  USELESS:          0
cpu0_DTLB AVERAGE MISS LATENCY: 516.261 cycles
cpu0_ITLB TOTAL     ACCESS:     472541  HIT:     472541  MISS:          0
cpu0_ITLB LOAD      ACCESS:     472541  HIT:     472541  MISS:          0
cpu0_ITLB RFO       ACCESS:          0  HIT:          0  MISS:          0
cpu0_ITLB PREFETCH  ACCESS:          0  HIT:          0  MISS:          0
cpu0_ITLB WRITEBACK ACCESS:          0  HIT:          0  MISS:          0
cpu0_ITLB TRANSLATION ACCESS:          0  HIT:          0  MISS:          0
cpu0_ITLB PREFETCH  REQUESTED:          0  ISSUED:          0  USEFUL:          0  USELESS:          0
cpu0_ITLB AVERAGE MISS LATENCY: -nan cycles
cpu0_L1I TOTAL     ACCESS:     551884  HIT:     551884  MISS:          0
cpu0_L1I LOAD      ACCESS:     551884  HIT:     551884  MISS:          0
cpu0_L1I RFO       ACCESS:          0  HIT:          0  MISS:          0
cpu0_L1I PREFETCH  ACCESS:          0  HIT:          0  MISS:          0
cpu0_L1I WRITEBACK ACCESS:          0  HIT:          0  MISS:          0
cpu0_L1I TRANSLATION ACCESS:          0  HIT:          0  MISS:          0
cpu0_L1I PREFETCH  REQUESTED:          0  ISSUED:          0  USEFUL:          0  USELESS:          0
cpu0_L1I AVERAGE MISS LATENCY: -nan cycles
cpu0_STLB TOTAL     ACCESS:      34047  HIT:      15571  MISS:      18476
cpu0_STLB LOAD      ACCESS:       4621  HIT:          0  MISS:       4621
cpu0_STLB RFO       ACCESS:      29426  HIT:      15571  MISS:      13855
cpu0_STLB PREFETCH  ACCESS:          0  HIT:          0  MISS:          0
cpu0_STLB WRITEBACK ACCESS:          0  HIT:          0  MISS:          0
cpu0_STLB TRANSLATION ACCESS:          0  HIT:          0  MISS:          0
cpu0_STLB PREFETCH  REQUESTED:          0  ISSUED:          0  USEFUL:          0  USELESS:          0
cpu0_STLB AVERAGE MISS LATENCY: 934.623 cycles
cpu0_L1D TOTAL     ACCESS:    5916964  HIT:    3966395  MISS:    1950569
cpu0_L1D LOAD      ACCESS:    1404826  HIT:    1109277  MISS:     295549
cpu0_L1D RFO       ACCESS:    4494611  HIT:    2839600  MISS:    1655011
cpu0_L1D PREFETCH  ACCESS:          0  HIT:          0  MISS:          0
cpu0_L1D WRITEBACK ACCESS:          0  HIT:          0  MISS:          0
cpu0_L1D TRANSLATION ACCESS:      17527  HIT:      17518  MISS:          9
cpu0_L1D PREFETCH  REQUESTED:          0  ISSUED:          0  USEFUL:          0  USELESS:          0
cpu0_L1D AVERAGE MISS LATENCY: 765.577 cycles
cpu0_L2C TOTAL     ACCESS:    4156802  HIT:    2918591  MISS:    1238211
cpu0_L2C LOAD      ACCESS:     295549  HIT:          2  MISS:     295547
cpu0_L2C RFO       ACCESS:    1655011  HIT:     738195  MISS:     916816
cpu0_L2C PREFETCH  ACCESS:     551196  HIT:     525411  MISS:      25785
cpu0_L2C WRITEBACK ACCESS:    1655037  HIT:    1654983  MISS:         54
cpu0_L2C TRANSLATION ACCESS:          9  HIT:          0  MISS:          9
cpu0_L2C PREFETCH  REQUESTED:     801683  ISSUED:     602211  USEFUL:      25576  USELESS:        206
cpu0_L2C AVERAGE MISS LATENCY: 1215.15 cycles
LLC TOTAL     ACCESS:    2159109  HIT:     951151  MISS:    1207958
LLC LOAD      ACCESS:     295547  HIT:          0  MISS:     295547
LLC RFO       ACCESS:     916765  HIT:      30184  MISS:     886581
LLC PREFETCH  ACCESS:      29803  HIT:       4023  MISS:      25780
LLC WRITEBACK ACCESS:     916985  HIT:     916944  MISS:         41
LLC TRANSLATION ACCESS:          9  HIT:          0  MISS:          9
LLC PREFETCH  REQUESTED:          0  ISSUED:          0  USEFUL:          0  USELESS:          0
LLC AVERAGE MISS LATENCY: 1229.4 cycles

DRAM Statistics
 CHANNEL 0
 RQ ROW_BUFFER_HIT:      34449  ROW_BUFFER_MISS:    1173468
 DBUS AVG_CONGESTED_CYCLE:    4.00305
 WQ ROW_BUFFER_HIT:      13967  ROW_BUFFER_MISS:     872938  FULL:          0


CPU 0 Branch Prediction Accuracy: 95.9842% MPKI: 0.71772 Average ROB Occupancy at Mispredict: 258.991
Branch type MPKI
BRANCH_DIRECT_JUMP: 0
BRANCH_INDIRECT: 0
BRANCH_CONDITIONAL: 0.71772
BRANCH_DIRECT_CALL: 0
BRANCH_INDIRECT_CALL: 0
BRANCH_RETURN: 0

