
*** ChampSim Multicore Out-of-Order Simulator ***

Warmup Instructions: 25000000
Simulation Instructions: 25000000
Number of CPUs: 1
Off-chip DRAM Size: 4 GiB Channels: 1 Width: 64-bit Data Rate: 3200 MT/s

VirtualMemory physical capacity: 8588881920 num_ppages: 2096895
VirtualMemory page size: 4096 log2_page_size: 12

CPU 0 runs /home/yogo/Documents/clonos/pa2-race-of-prefetchers-template/traces/619.lbm_s-2677B.champsimtrace.xz
CPU 0 Bimodal branch predictor
Basic BTB sets: 1024 ways: 8 indirect buffer size: 4096 RAS size: 64
cpu0_L2C Hybrid Stream + IP-based stride prefetcher
WARNING: The extended signature CACHE::prefetch_line(ip, base_addr, pf_addr, fill_this_level, prefetch_metadata) is deprecated.
WARNING: Use CACHE::prefetch_line(pf_addr, fill_this_level, prefetch_metadata) instead.
Heartbeat CPU 0 instructions: 10000001 cycles: 2595409 heartbeat IPC: 3.85296 cumulative IPC: 3.85296 (Simulation time: 0 hr 0 min 39 sec) 
Heartbeat CPU 0 instructions: 20000001 cycles: 5185835 heartbeat IPC: 3.86037 cumulative IPC: 3.85666 (Simulation time: 0 hr 1 min 26 sec) 

Warmup complete CPU 0 instructions: 25000004 cycles: 6481499 (Simulation time: 0 hr 1 min 57 sec) 

Heartbeat CPU 0 instructions: 30000002 cycles: 30166227 heartbeat IPC: 0.400314 cumulative IPC: 0.211106 (Simulation time: 0 hr 4 min 5 sec) 
Heartbeat CPU 0 instructions: 40000004 cycles: 77518198 heartbeat IPC: 0.211184 cumulative IPC: 0.211158 (Simulation time: 0 hr 7 min 52 sec) 
Heartbeat CPU 0 instructions: 50000001 cycles: 125876875 heartbeat IPC: 0.206788 cumulative IPC: 0.209388 (Simulation time: 0 hr 10 min 58 sec) 
Finished CPU 0 instructions: 25000002 cycles: 119395377 cumulative IPC: 0.209388 (Simulation time: 0 hr 10 min 58 sec) 

ChampSim completed all CPUs

Region of Interest Statistics

CPU 0 cumulative IPC: 0.209388 instructions: 25000002 cycles: 119395377
cpu0_DTLB TOTAL     ACCESS:    4450497  HIT:    4416450  MISS:      34047
cpu0_DTLB LOAD      ACCESS:    1980591  HIT:    1975970  MISS:       4621
cpu0_DTLB RFO       ACCESS:    2469906  HIT:    2440480  MISS:      29426
cpu0_DTLB PREFETCH  ACCESS:          0  HIT:          0  MISS:          0
cpu0_DTLB WRITEBACK ACCESS:          0  HIT:          0  MISS:          0
cpu0_DTLB TRANSLATION ACCESS:          0  HIT:          0  MISS:          0
cpu0_DTLB PREFETCH  REQUESTED:          0  ISSUED:          0  USEFUL:          0  USELESS:          0
cpu0_DTLB AVERAGE MISS LATENCY: 519.911 cycles
cpu0_ITLB TOTAL     ACCESS:     472458  HIT:     472458  MISS:          0
cpu0_ITLB LOAD      ACCESS:     472458  HIT:     472458  MISS:          0
cpu0_ITLB RFO       ACCESS:          0  HIT:          0  MISS:          0
cpu0_ITLB PREFETCH  ACCESS:          0  HIT:          0  MISS:          0
cpu0_ITLB WRITEBACK ACCESS:          0  HIT:          0  MISS:          0
cpu0_ITLB TRANSLATION ACCESS:          0  HIT:          0  MISS:          0
cpu0_ITLB PREFETCH  REQUESTED:          0  ISSUED:          0  USEFUL:          0  USELESS:          0
cpu0_ITLB AVERAGE MISS LATENCY: -nan cycles
cpu0_L1I TOTAL     ACCESS:     551885  HIT:     551885  MISS:          0
cpu0_L1I LOAD      ACCESS:     551885  HIT:     551885  MISS:          0
cpu0_L1I RFO       ACCESS:          0  HIT:          0  MISS:          0
cpu0_L1I PREFETCH  ACCESS:          0  HIT:          0  MISS:          0
cpu0_L1I WRITEBACK ACCESS:          0  HIT:          0  MISS:          0
cpu0_L1I TRANSLATION ACCESS:          0  HIT:          0  MISS:          0
cpu0_L1I PREFETCH  REQUESTED:          0  ISSUED:          0  USEFUL:          0  USELESS:          0
cpu0_L1I AVERAGE MISS LATENCY: -nan cycles
cpu0_STLB TOTAL     ACCESS:      34047  HIT:      15571  MISS:      18476
cpu0_STLB LOAD      ACCESS:       4621  HIT:          0  MISS:       4621
cpu0_STLB RFO       ACCESS:      29426  HIT:      15571  MISS:      13855
cpu0_STLB PREFETCH  ACCESS:          0  HIT:          0  MISS:          0
cpu0_STLB WRITEBACK ACCESS:          0  HIT:          0  MISS:          0
cpu0_STLB TRANSLATION ACCESS:          0  HIT:          0  MISS:          0
cpu0_STLB PREFETCH  REQUESTED:          0  ISSUED:          0  USEFUL:          0  USELESS:          0
cpu0_STLB AVERAGE MISS LATENCY: 941.35 cycles
cpu0_L1D TOTAL     ACCESS:    5916378  HIT:    3965805  MISS:    1950573
cpu0_L1D LOAD      ACCESS:    1403986  HIT:    1108433  MISS:     295553
cpu0_L1D RFO       ACCESS:    4494870  HIT:    2839859  MISS:    1655011
cpu0_L1D PREFETCH  ACCESS:          0  HIT:          0  MISS:          0
cpu0_L1D WRITEBACK ACCESS:          0  HIT:          0  MISS:          0
cpu0_L1D TRANSLATION ACCESS:      17522  HIT:      17513  MISS:          9
cpu0_L1D PREFETCH  REQUESTED:          0  ISSUED:          0  USEFUL:          0  USELESS:          0
cpu0_L1D AVERAGE MISS LATENCY: 766.38 cycles
cpu0_L2C TOTAL     ACCESS:    4157281  HIT:    2919495  MISS:    1237786
cpu0_L2C LOAD      ACCESS:     295553  HIT:          2  MISS:     295551
cpu0_L2C RFO       ACCESS:    1655010  HIT:     738636  MISS:     916374
cpu0_L2C PREFETCH  ACCESS:     551668  HIT:     525869  MISS:      25799
cpu0_L2C WRITEBACK ACCESS:    1655041  HIT:    1654988  MISS:         53
cpu0_L2C TRANSLATION ACCESS:          9  HIT:          0  MISS:          9
cpu0_L2C PREFETCH  REQUESTED:     801899  ISSUED:     602799  USEFUL:      25580  USELESS:        220
cpu0_L2C AVERAGE MISS LATENCY: 1216.45 cycles
LLC TOTAL     ACCESS:    2158585  HIT:     950609  MISS:    1207976
LLC LOAD      ACCESS:     295551  HIT:          1  MISS:     295550
LLC RFO       ACCESS:     916324  HIT:      29743  MISS:     886581
LLC PREFETCH  ACCESS:      30227  HIT:       4431  MISS:      25796
LLC WRITEBACK ACCESS:     916474  HIT:     916434  MISS:         40
LLC TRANSLATION ACCESS:          9  HIT:          0  MISS:          9
LLC PREFETCH  REQUESTED:          0  ISSUED:          0  USEFUL:          0  USELESS:          0
LLC AVERAGE MISS LATENCY: 1230.49 cycles

DRAM Statistics
 CHANNEL 0
 RQ ROW_BUFFER_HIT:      37904  ROW_BUFFER_MISS:    1170032
 DBUS AVG_CONGESTED_CYCLE:    4.00275
 WQ ROW_BUFFER_HIT:      14628  ROW_BUFFER_MISS:     872175  FULL:          0


CPU 0 Branch Prediction Accuracy: 95.9842% MPKI: 0.71772 Average ROB Occupancy at Mispredict: 258.787
Branch type MPKI
BRANCH_DIRECT_JUMP: 0
BRANCH_INDIRECT: 0
BRANCH_CONDITIONAL: 0.71772
BRANCH_DIRECT_CALL: 0
BRANCH_INDIRECT_CALL: 0
BRANCH_RETURN: 0

