
*** ChampSim Multicore Out-of-Order Simulator ***

Warmup Instructions: 25000000
Simulation Instructions: 25000000
Number of CPUs: 1
Off-chip DRAM Size: 4 GiB Channels: 1 Width: 64-bit Data Rate: 3200 MT/s

VirtualMemory physical capacity: 8588881920 num_ppages: 2096895
VirtualMemory page size: 4096 log2_page_size: 12

CPU 0 runs /home/yogo/Documents/clonos/pa2-race-of-prefetchers-template/traces/619.lbm_s-2677B.champsimtrace.xz
CPU 0 Bimodal branch predictor
Basic BTB sets: 1024 ways: 8 indirect buffer size: 4096 RAS size: 64
cpu0_L2C Hybrid Stream + IP-based stride prefetcher
WARNING: The extended signature CACHE::prefetch_line(ip, base_addr, pf_addr, fill_this_level, prefetch_metadata) is deprecated.
WARNING: Use CACHE::prefetch_line(pf_addr, fill_this_level, prefetch_metadata) instead.
Heartbeat CPU 0 instructions: 10000001 cycles: 2597529 heartbeat IPC: 3.84981 cumulative IPC: 3.84981 (Simulation time: 0 hr 0 min 47 sec) 
Heartbeat CPU 0 instructions: 20000001 cycles: 5190187 heartbeat IPC: 3.85705 cumulative IPC: 3.85343 (Simulation time: 0 hr 1 min 27 sec) 

Warmup complete CPU 0 instructions: 25000004 cycles: 6486923 (Simulation time: 0 hr 1 min 51 sec) 

Heartbeat CPU 0 instructions: 30000002 cycles: 30335802 heartbeat IPC: 0.397684 cumulative IPC: 0.209653 (Simulation time: 0 hr 4 min 55 sec) 
Heartbeat CPU 0 instructions: 40000004 cycles: 77986961 heartbeat IPC: 0.209859 cumulative IPC: 0.20979 (Simulation time: 0 hr 8 min 31 sec) 
Heartbeat CPU 0 instructions: 50000001 cycles: 126665238 heartbeat IPC: 0.20543 cumulative IPC: 0.208024 (Simulation time: 0 hr 11 min 31 sec) 
Finished CPU 0 instructions: 25000002 cycles: 120178316 cumulative IPC: 0.208024 (Simulation time: 0 hr 11 min 31 sec) 

ChampSim completed all CPUs

Region of Interest Statistics

CPU 0 cumulative IPC: 0.208024 instructions: 25000002 cycles: 120178316
cpu0_DTLB TOTAL     ACCESS:    4450104  HIT:    4416057  MISS:      34047
cpu0_DTLB LOAD      ACCESS:    1980140  HIT:    1975519  MISS:       4621
cpu0_DTLB RFO       ACCESS:    2469964  HIT:    2440538  MISS:      29426
cpu0_DTLB PREFETCH  ACCESS:          0  HIT:          0  MISS:          0
cpu0_DTLB WRITEBACK ACCESS:          0  HIT:          0  MISS:          0
cpu0_DTLB TRANSLATION ACCESS:          0  HIT:          0  MISS:          0
cpu0_DTLB PREFETCH  REQUESTED:          0  ISSUED:          0  USEFUL:          0  USELESS:          0
cpu0_DTLB AVERAGE MISS LATENCY: 519.863 cycles
cpu0_ITLB TOTAL     ACCESS:     472544  HIT:     472544  MISS:          0
cpu0_ITLB LOAD      ACCESS:     472544  HIT:     472544  MISS:          0
cpu0_ITLB RFO       ACCESS:          0  HIT:          0  MISS:          0
cpu0_ITLB PREFETCH  ACCESS:          0  HIT:          0  MISS:          0
cpu0_ITLB WRITEBACK ACCESS:          0  HIT:          0  MISS:          0
cpu0_ITLB TRANSLATION ACCESS:          0  HIT:          0  MISS:          0
cpu0_ITLB PREFETCH  REQUESTED:          0  ISSUED:          0  USEFUL:          0  USELESS:          0
cpu0_ITLB AVERAGE MISS LATENCY: -nan cycles
cpu0_L1I TOTAL     ACCESS:     551591  HIT:     551591  MISS:          0
cpu0_L1I LOAD      ACCESS:     551591  HIT:     551591  MISS:          0
cpu0_L1I RFO       ACCESS:          0  HIT:          0  MISS:          0
cpu0_L1I PREFETCH  ACCESS:          0  HIT:          0  MISS:          0
cpu0_L1I WRITEBACK ACCESS:          0  HIT:          0  MISS:          0
cpu0_L1I TRANSLATION ACCESS:          0  HIT:          0  MISS:          0
cpu0_L1I PREFETCH  REQUESTED:          0  ISSUED:          0  USEFUL:          0  USELESS:          0
cpu0_L1I AVERAGE MISS LATENCY: -nan cycles
cpu0_STLB TOTAL     ACCESS:      34047  HIT:      15571  MISS:      18476
cpu0_STLB LOAD      ACCESS:       4621  HIT:          0  MISS:       4621
cpu0_STLB RFO       ACCESS:      29426  HIT:      15571  MISS:      13855
cpu0_STLB PREFETCH  ACCESS:          0  HIT:          0  MISS:          0
cpu0_STLB WRITEBACK ACCESS:          0  HIT:          0  MISS:          0
cpu0_STLB TRANSLATION ACCESS:          0  HIT:          0  MISS:          0
cpu0_STLB PREFETCH  REQUESTED:          0  ISSUED:          0  USEFUL:          0  USELESS:          0
cpu0_STLB AVERAGE MISS LATENCY: 941.264 cycles
cpu0_L1D TOTAL     ACCESS:    5916572  HIT:    3965995  MISS:    1950577
cpu0_L1D LOAD      ACCESS:    1404687  HIT:    1109136  MISS:     295551
cpu0_L1D RFO       ACCESS:    4494359  HIT:    2839342  MISS:    1655017
cpu0_L1D PREFETCH  ACCESS:          0  HIT:          0  MISS:          0
cpu0_L1D WRITEBACK ACCESS:          0  HIT:          0  MISS:          0
cpu0_L1D TRANSLATION ACCESS:      17526  HIT:      17517  MISS:          9
cpu0_L1D PREFETCH  REQUESTED:          0  ISSUED:          0  USEFUL:          0  USELESS:          0
cpu0_L1D AVERAGE MISS LATENCY: 772.492 cycles
cpu0_L2C TOTAL     ACCESS:    4605602  HIT:    3347327  MISS:    1258275
cpu0_L2C LOAD      ACCESS:     295551  HIT:          2  MISS:     295549
cpu0_L2C RFO       ACCESS:    1655017  HIT:     737289  MISS:     917728
cpu0_L2C PREFETCH  ACCESS:     999979  HIT:     955047  MISS:      44932
cpu0_L2C WRITEBACK ACCESS:    1655046  HIT:    1654989  MISS:         57
cpu0_L2C TRANSLATION ACCESS:          9  HIT:          0  MISS:          9
cpu0_L2C PREFETCH  REQUESTED:    1383623  ISSUED:    1095014  USEFUL:      44769  USELESS:        159
cpu0_L2C AVERAGE MISS LATENCY: 1226.47 cycles
LLC TOTAL     ACCESS:    2184827  HIT:     957746  MISS:    1227081
LLC LOAD      ACCESS:     295549  HIT:          0  MISS:     295549
LLC RFO       ACCESS:     917665  HIT:      31082  MISS:     886583
LLC PREFETCH  ACCESS:      53803  HIT:       8906  MISS:      44897
LLC WRITEBACK ACCESS:     917801  HIT:     917758  MISS:         43
LLC TRANSLATION ACCESS:          9  HIT:          0  MISS:          9
LLC PREFETCH  REQUESTED:          0  ISSUED:          0  USEFUL:          0  USELESS:          0
LLC AVERAGE MISS LATENCY: 1247.69 cycles

DRAM Statistics
 CHANNEL 0
 RQ ROW_BUFFER_HIT:      47840  ROW_BUFFER_MISS:    1179198
 DBUS AVG_CONGESTED_CYCLE:    4.00261
 WQ ROW_BUFFER_HIT:      15492  ROW_BUFFER_MISS:     871276  FULL:          0


CPU 0 Branch Prediction Accuracy: 95.9842% MPKI: 0.71772 Average ROB Occupancy at Mispredict: 259.065
Branch type MPKI
BRANCH_DIRECT_JUMP: 0
BRANCH_INDIRECT: 0
BRANCH_CONDITIONAL: 0.71772
BRANCH_DIRECT_CALL: 0
BRANCH_INDIRECT_CALL: 0
BRANCH_RETURN: 0

