
*** ChampSim Multicore Out-of-Order Simulator ***

Warmup Instructions: 25000000
Simulation Instructions: 25000000
Number of CPUs: 1
Off-chip DRAM Size: 4 GiB Channels: 1 Width: 64-bit Data Rate: 3200 MT/s

VirtualMemory physical capacity: 8588881920 num_ppages: 2096895
VirtualMemory page size: 4096 log2_page_size: 12

CPU 0 runs /home/yogo/Documents/clonos/pa2-race-of-prefetchers-template/traces/619.lbm_s-2677B.champsimtrace.xz
CPU 0 Bimodal branch predictor
Basic BTB sets: 1024 ways: 8 indirect buffer size: 4096 RAS size: 64
cpu0_L2C Hybrid Stream + IP-based stride prefetcher
WARNING: The extended signature CACHE::prefetch_line(ip, base_addr, pf_addr, fill_this_level, prefetch_metadata) is deprecated.
WARNING: Use CACHE::prefetch_line(pf_addr, fill_this_level, prefetch_metadata) instead.
Heartbeat CPU 0 instructions: 10000001 cycles: 2596152 heartbeat IPC: 3.85186 cumulative IPC: 3.85186 (Simulation time: 0 hr 0 min 36 sec) 
Heartbeat CPU 0 instructions: 20000001 cycles: 5187351 heartbeat IPC: 3.85922 cumulative IPC: 3.85553 (Simulation time: 0 hr 1 min 18 sec) 

Warmup complete CPU 0 instructions: 25000004 cycles: 6483414 (Simulation time: 0 hr 1 min 41 sec) 

Heartbeat CPU 0 instructions: 30000002 cycles: 30214446 heartbeat IPC: 0.399567 cumulative IPC: 0.210695 (Simulation time: 0 hr 4 min 7 sec) 
Heartbeat CPU 0 instructions: 40000004 cycles: 77699853 heartbeat IPC: 0.210591 cumulative IPC: 0.210626 (Simulation time: 0 hr 7 min 39 sec) 
Heartbeat CPU 0 instructions: 50000004 cycles: 126130196 heartbeat IPC: 0.206482 cumulative IPC: 0.208948 (Simulation time: 0 hr 10 min 38 sec) 
Finished CPU 0 instructions: 25000000 cycles: 119646782 cumulative IPC: 0.208948 (Simulation time: 0 hr 10 min 38 sec) 

ChampSim completed all CPUs

Region of Interest Statistics

CPU 0 cumulative IPC: 0.208948 instructions: 25000000 cycles: 119646782
cpu0_DTLB TOTAL     ACCESS:    4450292  HIT:    4416245  MISS:      34047
cpu0_DTLB LOAD      ACCESS:    1980461  HIT:    1975840  MISS:       4621
cpu0_DTLB RFO       ACCESS:    2469831  HIT:    2440405  MISS:      29426
cpu0_DTLB PREFETCH  ACCESS:          0  HIT:          0  MISS:          0
cpu0_DTLB WRITEBACK ACCESS:          0  HIT:          0  MISS:          0
cpu0_DTLB TRANSLATION ACCESS:          0  HIT:          0  MISS:          0
cpu0_DTLB PREFETCH  REQUESTED:          0  ISSUED:          0  USEFUL:          0  USELESS:          0
cpu0_DTLB AVERAGE MISS LATENCY: 517.377 cycles
cpu0_ITLB TOTAL     ACCESS:     472174  HIT:     472174  MISS:          0
cpu0_ITLB LOAD      ACCESS:     472174  HIT:     472174  MISS:          0
cpu0_ITLB RFO       ACCESS:          0  HIT:          0  MISS:          0
cpu0_ITLB PREFETCH  ACCESS:          0  HIT:          0  MISS:          0
cpu0_ITLB WRITEBACK ACCESS:          0  HIT:          0  MISS:          0
cpu0_ITLB TRANSLATION ACCESS:          0  HIT:          0  MISS:          0
cpu0_ITLB PREFETCH  REQUESTED:          0  ISSUED:          0  USEFUL:          0  USELESS:          0
cpu0_ITLB AVERAGE MISS LATENCY: -nan cycles
cpu0_L1I TOTAL     ACCESS:     552336  HIT:     552336  MISS:          0
cpu0_L1I LOAD      ACCESS:     552336  HIT:     552336  MISS:          0
cpu0_L1I RFO       ACCESS:          0  HIT:          0  MISS:          0
cpu0_L1I PREFETCH  ACCESS:          0  HIT:          0  MISS:          0
cpu0_L1I WRITEBACK ACCESS:          0  HIT:          0  MISS:          0
cpu0_L1I TRANSLATION ACCESS:          0  HIT:          0  MISS:          0
cpu0_L1I PREFETCH  REQUESTED:          0  ISSUED:          0  USEFUL:          0  USELESS:          0
cpu0_L1I AVERAGE MISS LATENCY: -nan cycles
cpu0_STLB TOTAL     ACCESS:      34047  HIT:      15571  MISS:      18476
cpu0_STLB LOAD      ACCESS:       4621  HIT:          0  MISS:       4621
cpu0_STLB RFO       ACCESS:      29426  HIT:      15571  MISS:      13855
cpu0_STLB PREFETCH  ACCESS:          0  HIT:          0  MISS:          0
cpu0_STLB WRITEBACK ACCESS:          0  HIT:          0  MISS:          0
cpu0_STLB TRANSLATION ACCESS:          0  HIT:          0  MISS:          0
cpu0_STLB PREFETCH  REQUESTED:          0  ISSUED:          0  USEFUL:          0  USELESS:          0
cpu0_STLB AVERAGE MISS LATENCY: 936.678 cycles
cpu0_L1D TOTAL     ACCESS:    5917019  HIT:    3966444  MISS:    1950575
cpu0_L1D LOAD      ACCESS:    1404383  HIT:    1108833  MISS:     295550
cpu0_L1D RFO       ACCESS:    4495112  HIT:    2840096  MISS:    1655016
cpu0_L1D PREFETCH  ACCESS:          0  HIT:          0  MISS:          0
cpu0_L1D WRITEBACK ACCESS:          0  HIT:          0  MISS:          0
cpu0_L1D TRANSLATION ACCESS:      17524  HIT:      17515  MISS:          9
cpu0_L1D PREFETCH  REQUESTED:          0  ISSUED:          0  USEFUL:          0  USELESS:          0
cpu0_L1D AVERAGE MISS LATENCY: 769.341 cycles
cpu0_L2C TOTAL     ACCESS:    4313575  HIT:    3067299  MISS:    1246276
cpu0_L2C LOAD      ACCESS:     295550  HIT:          2  MISS:     295548
cpu0_L2C RFO       ACCESS:    1655016  HIT:     737945  MISS:     917071
cpu0_L2C PREFETCH  ACCESS:     707955  HIT:     674364  MISS:      33591
cpu0_L2C WRITEBACK ACCESS:    1655045  HIT:    1654988  MISS:         57
cpu0_L2C TRANSLATION ACCESS:          9  HIT:          0  MISS:          9
cpu0_L2C PREFETCH  REQUESTED:    1010407  ISSUED:     775067  USEFUL:      33406  USELESS:        187
cpu0_L2C AVERAGE MISS LATENCY: 1221.54 cycles
LLC TOTAL     ACCESS:    2169151  HIT:     953386  MISS:    1215765
LLC LOAD      ACCESS:     295548  HIT:          1  MISS:     295547
LLC RFO       ACCESS:     917026  HIT:      30444  MISS:     886582
LLC PREFETCH  ACCESS:      39354  HIT:       5770  MISS:      33584
LLC WRITEBACK ACCESS:     917214  HIT:     917171  MISS:         43
LLC TRANSLATION ACCESS:          9  HIT:          0  MISS:          9
LLC PREFETCH  REQUESTED:          0  ISSUED:          0  USEFUL:          0  USELESS:          0
LLC AVERAGE MISS LATENCY: 1237.91 cycles

DRAM Statistics
 CHANNEL 0
 RQ ROW_BUFFER_HIT:      41196  ROW_BUFFER_MISS:    1174526
 DBUS AVG_CONGESTED_CYCLE:     4.0027
 WQ ROW_BUFFER_HIT:      15087  ROW_BUFFER_MISS:     871767  FULL:          0


CPU 0 Branch Prediction Accuracy: 95.9842% MPKI: 0.71772 Average ROB Occupancy at Mispredict: 258.933
Branch type MPKI
BRANCH_DIRECT_JUMP: 0
BRANCH_INDIRECT: 0
BRANCH_CONDITIONAL: 0.71772
BRANCH_DIRECT_CALL: 0
BRANCH_INDIRECT_CALL: 0
BRANCH_RETURN: 0

