
*** ChampSim Multicore Out-of-Order Simulator ***

Warmup Instructions: 25000000
Simulation Instructions: 25000000
Number of CPUs: 1
Off-chip DRAM Size: 4 GiB Channels: 1 Width: 64-bit Data Rate: 3200 MT/s

VirtualMemory physical capacity: 8588881920 num_ppages: 2096895
VirtualMemory page size: 4096 log2_page_size: 12

CPU 0 runs /home/vedant/Practicals/AdvanceCA/Assignments/Assignment2/traces/619.lbm_s-2677B.champsimtrace.xz
CPU 0 Bimodal branch predictor
Basic BTB sets: 1024 ways: 8 indirect buffer size: 4096 RAS size: 64
cpu0_L2C Stream prefetcher
WARNING: The extended signature CACHE::prefetch_line(ip, base_addr, pf_addr, fill_this_level, prefetch_metadata) is deprecated.
WARNING: Use CACHE::prefetch_line(pf_addr, fill_this_level, prefetch_metadata) instead.
Heartbeat CPU 0 instructions: 10000001 cycles: 2595743 heartbeat IPC: 3.85246 cumulative IPC: 3.85246 (Simulation time: 0 hr 0 min 41 sec) 
Heartbeat CPU 0 instructions: 20000001 cycles: 5186598 heartbeat IPC: 3.85973 cumulative IPC: 3.85609 (Simulation time: 0 hr 1 min 24 sec) 

Warmup complete CPU 0 instructions: 25000004 cycles: 6482429 (Simulation time: 0 hr 1 min 45 sec) 

Heartbeat CPU 0 instructions: 30000002 cycles: 30068146 heartbeat IPC: 0.401904 cumulative IPC: 0.211993 (Simulation time: 0 hr 3 min 52 sec) 
Heartbeat CPU 0 instructions: 40000004 cycles: 77226096 heartbeat IPC: 0.212053 cumulative IPC: 0.212033 (Simulation time: 0 hr 7 min 26 sec) 
Heartbeat CPU 0 instructions: 50000001 cycles: 125375736 heartbeat IPC: 0.207686 cumulative IPC: 0.210273 (Simulation time: 0 hr 10 min 15 sec) 
Finished CPU 0 instructions: 25000002 cycles: 118893308 cumulative IPC: 0.210273 (Simulation time: 0 hr 10 min 15 sec) 

ChampSim completed all CPUs

Region of Interest Statistics

CPU 0 cumulative IPC: 0.210273 instructions: 25000002 cycles: 118893308
cpu0_DTLB TOTAL     ACCESS:    4451291  HIT:    4417244  MISS:      34047
cpu0_DTLB LOAD      ACCESS:    1981320  HIT:    1976699  MISS:       4621
cpu0_DTLB RFO       ACCESS:    2469971  HIT:    2440545  MISS:      29426
cpu0_DTLB PREFETCH  ACCESS:          0  HIT:          0  MISS:          0
cpu0_DTLB WRITEBACK ACCESS:          0  HIT:          0  MISS:          0
cpu0_DTLB TRANSLATION ACCESS:          0  HIT:          0  MISS:          0
cpu0_DTLB PREFETCH  REQUESTED:          0  ISSUED:          0  USEFUL:          0  USELESS:          0
cpu0_DTLB AVERAGE MISS LATENCY: 511.999 cycles
cpu0_ITLB TOTAL     ACCESS:     472208  HIT:     472208  MISS:          0
cpu0_ITLB LOAD      ACCESS:     472208  HIT:     472208  MISS:          0
cpu0_ITLB RFO       ACCESS:          0  HIT:          0  MISS:          0
cpu0_ITLB PREFETCH  ACCESS:          0  HIT:          0  MISS:          0
cpu0_ITLB WRITEBACK ACCESS:          0  HIT:          0  MISS:          0
cpu0_ITLB TRANSLATION ACCESS:          0  HIT:          0  MISS:          0
cpu0_ITLB PREFETCH  REQUESTED:          0  ISSUED:          0  USEFUL:          0  USELESS:          0
cpu0_ITLB AVERAGE MISS LATENCY: -nan cycles
cpu0_L1I TOTAL     ACCESS:     551431  HIT:     551431  MISS:          0
cpu0_L1I LOAD      ACCESS:     551431  HIT:     551431  MISS:          0
cpu0_L1I RFO       ACCESS:          0  HIT:          0  MISS:          0
cpu0_L1I PREFETCH  ACCESS:          0  HIT:          0  MISS:          0
cpu0_L1I WRITEBACK ACCESS:          0  HIT:          0  MISS:          0
cpu0_L1I TRANSLATION ACCESS:          0  HIT:          0  MISS:          0
cpu0_L1I PREFETCH  REQUESTED:          0  ISSUED:          0  USEFUL:          0  USELESS:          0
cpu0_L1I AVERAGE MISS LATENCY: -nan cycles
cpu0_STLB TOTAL     ACCESS:      34047  HIT:      15571  MISS:      18476
cpu0_STLB LOAD      ACCESS:       4621  HIT:          0  MISS:       4621
cpu0_STLB RFO       ACCESS:      29426  HIT:      15571  MISS:      13855
cpu0_STLB PREFETCH  ACCESS:          0  HIT:          0  MISS:          0
cpu0_STLB WRITEBACK ACCESS:          0  HIT:          0  MISS:          0
cpu0_STLB TRANSLATION ACCESS:          0  HIT:          0  MISS:          0
cpu0_STLB PREFETCH  REQUESTED:          0  ISSUED:          0  USEFUL:          0  USELESS:          0
cpu0_STLB AVERAGE MISS LATENCY: 926.769 cycles
cpu0_L1D TOTAL     ACCESS:    5917731  HIT:    3967158  MISS:    1950573
cpu0_L1D LOAD      ACCESS:    1404779  HIT:    1109229  MISS:     295550
cpu0_L1D RFO       ACCESS:    4495433  HIT:    2840419  MISS:    1655014
cpu0_L1D PREFETCH  ACCESS:          0  HIT:          0  MISS:          0
cpu0_L1D WRITEBACK ACCESS:          0  HIT:          0  MISS:          0
cpu0_L1D TRANSLATION ACCESS:      17519  HIT:      17510  MISS:          9
cpu0_L1D PREFETCH  REQUESTED:          0  ISSUED:          0  USEFUL:          0  USELESS:          0
cpu0_L1D AVERAGE MISS LATENCY: 762.875 cycles
cpu0_L2C TOTAL     ACCESS:    4602579  HIT:    3362078  MISS:    1240501
cpu0_L2C LOAD      ACCESS:     295550  HIT:          3  MISS:     295547
cpu0_L2C RFO       ACCESS:    1655014  HIT:     737876  MISS:     917138
cpu0_L2C PREFETCH  ACCESS:     996963  HIT:     969212  MISS:      27751
cpu0_L2C WRITEBACK ACCESS:    1655043  HIT:    1654987  MISS:         56
cpu0_L2C TRANSLATION ACCESS:          9  HIT:          0  MISS:          9
cpu0_L2C PREFETCH  REQUESTED:    1516581  ISSUED:    1066015  USEFUL:      27726  USELESS:         25
cpu0_L2C AVERAGE MISS LATENCY: 1212.9 cycles
LLC TOTAL     ACCESS:    2162356  HIT:     952440  MISS:    1209916
LLC LOAD      ACCESS:     295547  HIT:          1  MISS:     295546
LLC RFO       ACCESS:     917089  HIT:      30508  MISS:     886581
LLC PREFETCH  ACCESS:      32407  HIT:       4671  MISS:      27736
LLC WRITEBACK ACCESS:     917304  HIT:     917260  MISS:         44
LLC TRANSLATION ACCESS:          9  HIT:          0  MISS:          9
LLC PREFETCH  REQUESTED:          0  ISSUED:          0  USEFUL:          0  USELESS:          0
LLC AVERAGE MISS LATENCY: 1228.29 cycles

DRAM Statistics
 CHANNEL 0
 RQ ROW_BUFFER_HIT:      35455  ROW_BUFFER_MISS:    1174417
 DBUS AVG_CONGESTED_CYCLE:    4.00333
 WQ ROW_BUFFER_HIT:      13742  ROW_BUFFER_MISS:     873093  FULL:          0


CPU 0 Branch Prediction Accuracy: 95.9842% MPKI: 0.71772 Average ROB Occupancy at Mispredict: 259.01
Branch type MPKI
BRANCH_DIRECT_JUMP: 0
BRANCH_INDIRECT: 0
BRANCH_CONDITIONAL: 0.71772
BRANCH_DIRECT_CALL: 0
BRANCH_INDIRECT_CALL: 0
BRANCH_RETURN: 0

