
*** ChampSim Multicore Out-of-Order Simulator ***

Warmup Instructions: 25000000
Simulation Instructions: 25000000
Number of CPUs: 1
Off-chip DRAM Size: 4 GiB Channels: 1 Width: 64-bit Data Rate: 3200 MT/s

VirtualMemory physical capacity: 8588881920 num_ppages: 2096895
VirtualMemory page size: 4096 log2_page_size: 12

CPU 0 runs /home/vedant/Practicals/AdvanceCA/Assignments/Assignment2/traces/619.lbm_s-2677B.champsimtrace.xz
CPU 0 Bimodal branch predictor
Basic BTB sets: 1024 ways: 8 indirect buffer size: 4096 RAS size: 64
cpu0_L2C Stream prefetcher
WARNING: The extended signature CACHE::prefetch_line(ip, base_addr, pf_addr, fill_this_level, prefetch_metadata) is deprecated.
WARNING: Use CACHE::prefetch_line(pf_addr, fill_this_level, prefetch_metadata) instead.
Heartbeat CPU 0 instructions: 10000001 cycles: 2593979 heartbeat IPC: 3.85508 cumulative IPC: 3.85508 (Simulation time: 0 hr 0 min 46 sec) 
Heartbeat CPU 0 instructions: 20000001 cycles: 5183295 heartbeat IPC: 3.86202 cumulative IPC: 3.85855 (Simulation time: 0 hr 1 min 27 sec) 

Warmup complete CPU 0 instructions: 25000001 cycles: 6478215 (Simulation time: 0 hr 1 min 46 sec) 

Heartbeat CPU 0 instructions: 30000002 cycles: 30064061 heartbeat IPC: 0.401917 cumulative IPC: 0.211992 (Simulation time: 0 hr 3 min 47 sec) 
Heartbeat CPU 0 instructions: 40000004 cycles: 77143976 heartbeat IPC: 0.212405 cumulative IPC: 0.212267 (Simulation time: 0 hr 7 min 17 sec) 
Heartbeat CPU 0 instructions: 50000001 cycles: 125261265 heartbeat IPC: 0.207825 cumulative IPC: 0.210468 (Simulation time: 0 hr 10 min 8 sec) 
Finished CPU 0 instructions: 25000000 cycles: 118783050 cumulative IPC: 0.210468 (Simulation time: 0 hr 10 min 8 sec) 

ChampSim completed all CPUs

Region of Interest Statistics

CPU 0 cumulative IPC: 0.210468 instructions: 25000000 cycles: 118783050
cpu0_DTLB TOTAL     ACCESS:    4449025  HIT:    4414978  MISS:      34047
cpu0_DTLB LOAD      ACCESS:    1979051  HIT:    1974430  MISS:       4621
cpu0_DTLB RFO       ACCESS:    2469974  HIT:    2440548  MISS:      29426
cpu0_DTLB PREFETCH  ACCESS:          0  HIT:          0  MISS:          0
cpu0_DTLB WRITEBACK ACCESS:          0  HIT:          0  MISS:          0
cpu0_DTLB TRANSLATION ACCESS:          0  HIT:          0  MISS:          0
cpu0_DTLB PREFETCH  REQUESTED:          0  ISSUED:          0  USEFUL:          0  USELESS:          0
cpu0_DTLB AVERAGE MISS LATENCY: 512.313 cycles
cpu0_ITLB TOTAL     ACCESS:     472459  HIT:     472459  MISS:          0
cpu0_ITLB LOAD      ACCESS:     472459  HIT:     472459  MISS:          0
cpu0_ITLB RFO       ACCESS:          0  HIT:          0  MISS:          0
cpu0_ITLB PREFETCH  ACCESS:          0  HIT:          0  MISS:          0
cpu0_ITLB WRITEBACK ACCESS:          0  HIT:          0  MISS:          0
cpu0_ITLB TRANSLATION ACCESS:          0  HIT:          0  MISS:          0
cpu0_ITLB PREFETCH  REQUESTED:          0  ISSUED:          0  USEFUL:          0  USELESS:          0
cpu0_ITLB AVERAGE MISS LATENCY: -nan cycles
cpu0_L1I TOTAL     ACCESS:     551567  HIT:     551567  MISS:          0
cpu0_L1I LOAD      ACCESS:     551567  HIT:     551567  MISS:          0
cpu0_L1I RFO       ACCESS:          0  HIT:          0  MISS:          0
cpu0_L1I PREFETCH  ACCESS:          0  HIT:          0  MISS:          0
cpu0_L1I WRITEBACK ACCESS:          0  HIT:          0  MISS:          0
cpu0_L1I TRANSLATION ACCESS:          0  HIT:          0  MISS:          0
cpu0_L1I PREFETCH  REQUESTED:          0  ISSUED:          0  USEFUL:          0  USELESS:          0
cpu0_L1I AVERAGE MISS LATENCY: -nan cycles
cpu0_STLB TOTAL     ACCESS:      34047  HIT:      15571  MISS:      18476
cpu0_STLB LOAD      ACCESS:       4621  HIT:          0  MISS:       4621
cpu0_STLB RFO       ACCESS:      29426  HIT:      15571  MISS:      13855
cpu0_STLB PREFETCH  ACCESS:          0  HIT:          0  MISS:          0
cpu0_STLB WRITEBACK ACCESS:          0  HIT:          0  MISS:          0
cpu0_STLB TRANSLATION ACCESS:          0  HIT:          0  MISS:          0
cpu0_STLB PREFETCH  REQUESTED:          0  ISSUED:          0  USEFUL:          0  USELESS:          0
cpu0_STLB AVERAGE MISS LATENCY: 927.348 cycles
cpu0_L1D TOTAL     ACCESS:    5915970  HIT:    3965403  MISS:    1950567
cpu0_L1D LOAD      ACCESS:    1403708  HIT:    1108162  MISS:     295546
cpu0_L1D RFO       ACCESS:    4494734  HIT:    2839722  MISS:    1655012
cpu0_L1D PREFETCH  ACCESS:          0  HIT:          0  MISS:          0
cpu0_L1D WRITEBACK ACCESS:          0  HIT:          0  MISS:          0
cpu0_L1D TRANSLATION ACCESS:      17528  HIT:      17519  MISS:          9
cpu0_L1D PREFETCH  REQUESTED:          0  ISSUED:          0  USEFUL:          0  USELESS:          0
cpu0_L1D AVERAGE MISS LATENCY: 762.328 cycles
cpu0_L2C TOTAL     ACCESS:    4108716  HIT:    2883945  MISS:    1224771
cpu0_L2C LOAD      ACCESS:     295546  HIT:          1  MISS:     295545
cpu0_L2C RFO       ACCESS:    1655012  HIT:     739730  MISS:     915282
cpu0_L2C PREFETCH  ACCESS:     503115  HIT:     489234  MISS:      13881
cpu0_L2C WRITEBACK ACCESS:    1655034  HIT:    1654980  MISS:         54
cpu0_L2C TRANSLATION ACCESS:          9  HIT:          0  MISS:          9
cpu0_L2C PREFETCH  REQUESTED:     842859  ISSUED:     535082  USEFUL:      13860  USELESS:         21
cpu0_L2C AVERAGE MISS LATENCY: 1211.57 cycles
LLC TOTAL     ACCESS:    2141556  HIT:     945511  MISS:    1196045
LLC LOAD      ACCESS:     295545  HIT:          1  MISS:     295544
LLC RFO       ACCESS:     915229  HIT:      28648  MISS:     886581
LLC PREFETCH  ACCESS:      15398  HIT:       1529  MISS:      13869
LLC WRITEBACK ACCESS:     915375  HIT:     915333  MISS:         42
LLC TRANSLATION ACCESS:          9  HIT:          0  MISS:          9
LLC PREFETCH  REQUESTED:          0  ISSUED:          0  USEFUL:          0  USELESS:          0
LLC AVERAGE MISS LATENCY: 1221.35 cycles

DRAM Statistics
 CHANNEL 0
 RQ ROW_BUFFER_HIT:      39412  ROW_BUFFER_MISS:    1156591
 DBUS AVG_CONGESTED_CYCLE:    4.00272
 WQ ROW_BUFFER_HIT:      16547  ROW_BUFFER_MISS:     870249  FULL:          0


CPU 0 Branch Prediction Accuracy: 95.9842% MPKI: 0.71772 Average ROB Occupancy at Mispredict: 258.775
Branch type MPKI
BRANCH_DIRECT_JUMP: 0
BRANCH_INDIRECT: 0
BRANCH_CONDITIONAL: 0.71772
BRANCH_DIRECT_CALL: 0
BRANCH_INDIRECT_CALL: 0
BRANCH_RETURN: 0

