
*** ChampSim Multicore Out-of-Order Simulator ***

Warmup Instructions: 25000000
Simulation Instructions: 25000000
Number of CPUs: 1
Off-chip DRAM Size: 4 GiB Channels: 1 Width: 64-bit Data Rate: 3200 MT/s

VirtualMemory physical capacity: 8588881920 num_ppages: 2096895
VirtualMemory page size: 4096 log2_page_size: 12

CPU 0 runs /home/vedant/Practicals/AdvanceCA/Assignments/Assignment2/traces/619.lbm_s-2677B.champsimtrace.xz
CPU 0 Bimodal branch predictor
Basic BTB sets: 1024 ways: 8 indirect buffer size: 4096 RAS size: 64
cpu0_L2C Stream Throttling prefetcher
Heartbeat CPU 0 instructions: 10000001 cycles: 2592619 heartbeat IPC: 3.8571 cumulative IPC: 3.8571 (Simulation time: 0 hr 0 min 41 sec) 
Heartbeat CPU 0 instructions: 20000001 cycles: 5180832 heartbeat IPC: 3.86367 cumulative IPC: 3.86038 (Simulation time: 0 hr 1 min 23 sec) 

Warmup complete CPU 0 instructions: 25000001 cycles: 6475071 (Simulation time: 0 hr 1 min 43 sec) 

Heartbeat CPU 0 instructions: 30000002 cycles: 29838104 heartbeat IPC: 0.40556 cumulative IPC: 0.214013 (Simulation time: 0 hr 4 min 5 sec) 
Heartbeat CPU 0 instructions: 40000004 cycles: 76524171 heartbeat IPC: 0.214197 cumulative IPC: 0.214136 (Simulation time: 0 hr 7 min 24 sec) 
Heartbeat CPU 0 instructions: 50000001 cycles: 124305675 heartbeat IPC: 0.209286 cumulative IPC: 0.212169 (Simulation time: 0 hr 10 min 8 sec) 
Finished CPU 0 instructions: 25000000 cycles: 117830604 cumulative IPC: 0.212169 (Simulation time: 0 hr 10 min 8 sec) 

ChampSim completed all CPUs

Region of Interest Statistics

CPU 0 cumulative IPC: 0.212169 instructions: 25000000 cycles: 117830604
cpu0_DTLB TOTAL     ACCESS:    4450578  HIT:    4416531  MISS:      34047
cpu0_DTLB LOAD      ACCESS:    1980640  HIT:    1976019  MISS:       4621
cpu0_DTLB RFO       ACCESS:    2469938  HIT:    2440512  MISS:      29426
cpu0_DTLB PREFETCH  ACCESS:          0  HIT:          0  MISS:          0
cpu0_DTLB WRITEBACK ACCESS:          0  HIT:          0  MISS:          0
cpu0_DTLB TRANSLATION ACCESS:          0  HIT:          0  MISS:          0
cpu0_DTLB PREFETCH  REQUESTED:          0  ISSUED:          0  USEFUL:          0  USELESS:          0
cpu0_DTLB AVERAGE MISS LATENCY: 512.011 cycles
cpu0_ITLB TOTAL     ACCESS:     472600  HIT:     472600  MISS:          0
cpu0_ITLB LOAD      ACCESS:     472600  HIT:     472600  MISS:          0
cpu0_ITLB RFO       ACCESS:          0  HIT:          0  MISS:          0
cpu0_ITLB PREFETCH  ACCESS:          0  HIT:          0  MISS:          0
cpu0_ITLB WRITEBACK ACCESS:          0  HIT:          0  MISS:          0
cpu0_ITLB TRANSLATION ACCESS:          0  HIT:          0  MISS:          0
cpu0_ITLB PREFETCH  REQUESTED:          0  ISSUED:          0  USEFUL:          0  USELESS:          0
cpu0_ITLB AVERAGE MISS LATENCY: -nan cycles
cpu0_L1I TOTAL     ACCESS:     551278  HIT:     551278  MISS:          0
cpu0_L1I LOAD      ACCESS:     551278  HIT:     551278  MISS:          0
cpu0_L1I RFO       ACCESS:          0  HIT:          0  MISS:          0
cpu0_L1I PREFETCH  ACCESS:          0  HIT:          0  MISS:          0
cpu0_L1I WRITEBACK ACCESS:          0  HIT:          0  MISS:          0
cpu0_L1I TRANSLATION ACCESS:          0  HIT:          0  MISS:          0
cpu0_L1I PREFETCH  REQUESTED:          0  ISSUED:          0  USEFUL:          0  USELESS:          0
cpu0_L1I AVERAGE MISS LATENCY: -nan cycles
cpu0_STLB TOTAL     ACCESS:      34047  HIT:      15571  MISS:      18476
cpu0_STLB LOAD      ACCESS:       4621  HIT:          0  MISS:       4621
cpu0_STLB RFO       ACCESS:      29426  HIT:      15571  MISS:      13855
cpu0_STLB PREFETCH  ACCESS:          0  HIT:          0  MISS:          0
cpu0_STLB WRITEBACK ACCESS:          0  HIT:          0  MISS:          0
cpu0_STLB TRANSLATION ACCESS:          0  HIT:          0  MISS:          0
cpu0_STLB PREFETCH  REQUESTED:          0  ISSUED:          0  USEFUL:          0  USELESS:          0
cpu0_STLB AVERAGE MISS LATENCY: 926.794 cycles
cpu0_L1D TOTAL     ACCESS:    5917877  HIT:    3967306  MISS:    1950571
cpu0_L1D LOAD      ACCESS:    1405261  HIT:    1109711  MISS:     295550
cpu0_L1D RFO       ACCESS:    4495091  HIT:    2840079  MISS:    1655012
cpu0_L1D PREFETCH  ACCESS:          0  HIT:          0  MISS:          0
cpu0_L1D WRITEBACK ACCESS:          0  HIT:          0  MISS:          0
cpu0_L1D TRANSLATION ACCESS:      17525  HIT:      17516  MISS:          9
cpu0_L1D PREFETCH  REQUESTED:          0  ISSUED:          0  USEFUL:          0  USELESS:          0
cpu0_L1D AVERAGE MISS LATENCY: 755.569 cycles
cpu0_L2C TOTAL     ACCESS:    3605609  HIT:    2396122  MISS:    1209487
cpu0_L2C LOAD      ACCESS:     295550  HIT:          1  MISS:     295549
cpu0_L2C RFO       ACCESS:    1655012  HIT:     741137  MISS:     913875
cpu0_L2C PREFETCH  ACCESS:          0  HIT:          0  MISS:          0
cpu0_L2C WRITEBACK ACCESS:    1655038  HIT:    1654984  MISS:         54
cpu0_L2C TRANSLATION ACCESS:          9  HIT:          0  MISS:          9
cpu0_L2C PREFETCH  REQUESTED:          0  ISSUED:     295550  USEFUL:     295549  USELESS:          0
cpu0_L2C AVERAGE MISS LATENCY: 1200.7 cycles
LLC TOTAL     ACCESS:    2123382  HIT:     941202  MISS:    1182180
LLC LOAD      ACCESS:     295549  HIT:          0  MISS:     295549
LLC RFO       ACCESS:     913825  HIT:      27244  MISS:     886581
LLC PREFETCH  ACCESS:          0  HIT:          0  MISS:          0
LLC WRITEBACK ACCESS:     913999  HIT:     913958  MISS:         41
LLC TRANSLATION ACCESS:          9  HIT:          0  MISS:          9
LLC PREFETCH  REQUESTED:          0  ISSUED:          0  USEFUL:          0  USELESS:          0
LLC AVERAGE MISS LATENCY: 1206.95 cycles

DRAM Statistics
 CHANNEL 0
 RQ ROW_BUFFER_HIT:      36540  ROW_BUFFER_MISS:    1145599
 DBUS AVG_CONGESTED_CYCLE:    4.00294
 WQ ROW_BUFFER_HIT:      17822  ROW_BUFFER_MISS:     869193  FULL:          0


CPU 0 Branch Prediction Accuracy: 95.9842% MPKI: 0.71772 Average ROB Occupancy at Mispredict: 258.996
Branch type MPKI
BRANCH_DIRECT_JUMP: 0
BRANCH_INDIRECT: 0
BRANCH_CONDITIONAL: 0.71772
BRANCH_DIRECT_CALL: 0
BRANCH_INDIRECT_CALL: 0
BRANCH_RETURN: 0

