
*** ChampSim Multicore Out-of-Order Simulator ***

Warmup Instructions: 25000000
Simulation Instructions: 25000000
Number of CPUs: 1
Off-chip DRAM Size: 4 GiB Channels: 1 Width: 64-bit Data Rate: 3200 MT/s

VirtualMemory physical capacity: 8588881920 num_ppages: 2096895
VirtualMemory page size: 4096 log2_page_size: 12

CPU 0 runs /home/yogo/Documents/clonos/pa2-race-of-prefetchers-template/traces/619.lbm_s-2677B.champsimtrace.xz
CPU 0 Bimodal branch predictor
Basic BTB sets: 1024 ways: 8 indirect buffer size: 4096 RAS size: 64
cpu0_L2C Hybrid Stream + IP-based stride prefetcher
WARNING: The extended signature CACHE::prefetch_line(ip, base_addr, pf_addr, fill_this_level, prefetch_metadata) is deprecated.
WARNING: Use CACHE::prefetch_line(pf_addr, fill_this_level, prefetch_metadata) instead.
Heartbeat CPU 0 instructions: 10000001 cycles: 2596201 heartbeat IPC: 3.85178 cumulative IPC: 3.85178 (Simulation time: 0 hr 0 min 38 sec) 
Heartbeat CPU 0 instructions: 20000001 cycles: 5187343 heartbeat IPC: 3.8593 cumulative IPC: 3.85554 (Simulation time: 0 hr 1 min 21 sec) 

Warmup complete CPU 0 instructions: 25000004 cycles: 6483374 (Simulation time: 0 hr 1 min 41 sec) 

Heartbeat CPU 0 instructions: 30000002 cycles: 30151686 heartbeat IPC: 0.400571 cumulative IPC: 0.211253 (Simulation time: 0 hr 3 min 51 sec) 
Heartbeat CPU 0 instructions: 40000004 cycles: 77454971 heartbeat IPC: 0.211402 cumulative IPC: 0.211352 (Simulation time: 0 hr 7 min 48 sec) 
Heartbeat CPU 0 instructions: 50000001 cycles: 125818573 heartbeat IPC: 0.206767 cumulative IPC: 0.209494 (Simulation time: 0 hr 11 min 0 sec) 
Finished CPU 0 instructions: 25000002 cycles: 119335200 cumulative IPC: 0.209494 (Simulation time: 0 hr 11 min 0 sec) 

ChampSim completed all CPUs

Region of Interest Statistics

CPU 0 cumulative IPC: 0.209494 instructions: 25000002 cycles: 119335200
cpu0_DTLB TOTAL     ACCESS:    4450251  HIT:    4416204  MISS:      34047
cpu0_DTLB LOAD      ACCESS:    1980503  HIT:    1975882  MISS:       4621
cpu0_DTLB RFO       ACCESS:    2469748  HIT:    2440322  MISS:      29426
cpu0_DTLB PREFETCH  ACCESS:          0  HIT:          0  MISS:          0
cpu0_DTLB WRITEBACK ACCESS:          0  HIT:          0  MISS:          0
cpu0_DTLB TRANSLATION ACCESS:          0  HIT:          0  MISS:          0
cpu0_DTLB PREFETCH  REQUESTED:          0  ISSUED:          0  USEFUL:          0  USELESS:          0
cpu0_DTLB AVERAGE MISS LATENCY: 518.778 cycles
cpu0_ITLB TOTAL     ACCESS:     472605  HIT:     472605  MISS:          0
cpu0_ITLB LOAD      ACCESS:     472605  HIT:     472605  MISS:          0
cpu0_ITLB RFO       ACCESS:          0  HIT:          0  MISS:          0
cpu0_ITLB PREFETCH  ACCESS:          0  HIT:          0  MISS:          0
cpu0_ITLB WRITEBACK ACCESS:          0  HIT:          0  MISS:          0
cpu0_ITLB TRANSLATION ACCESS:          0  HIT:          0  MISS:          0
cpu0_ITLB PREFETCH  REQUESTED:          0  ISSUED:          0  USEFUL:          0  USELESS:          0
cpu0_ITLB AVERAGE MISS LATENCY: -nan cycles
cpu0_L1I TOTAL     ACCESS:     551174  HIT:     551174  MISS:          0
cpu0_L1I LOAD      ACCESS:     551174  HIT:     551174  MISS:          0
cpu0_L1I RFO       ACCESS:          0  HIT:          0  MISS:          0
cpu0_L1I PREFETCH  ACCESS:          0  HIT:          0  MISS:          0
cpu0_L1I WRITEBACK ACCESS:          0  HIT:          0  MISS:          0
cpu0_L1I TRANSLATION ACCESS:          0  HIT:          0  MISS:          0
cpu0_L1I PREFETCH  REQUESTED:          0  ISSUED:          0  USEFUL:          0  USELESS:          0
cpu0_L1I AVERAGE MISS LATENCY: -nan cycles
cpu0_STLB TOTAL     ACCESS:      34047  HIT:      15571  MISS:      18476
cpu0_STLB LOAD      ACCESS:       4621  HIT:          0  MISS:       4621
cpu0_STLB RFO       ACCESS:      29426  HIT:      15571  MISS:      13855
cpu0_STLB PREFETCH  ACCESS:          0  HIT:          0  MISS:          0
cpu0_STLB WRITEBACK ACCESS:          0  HIT:          0  MISS:          0
cpu0_STLB TRANSLATION ACCESS:          0  HIT:          0  MISS:          0
cpu0_STLB PREFETCH  REQUESTED:          0  ISSUED:          0  USEFUL:          0  USELESS:          0
cpu0_STLB AVERAGE MISS LATENCY: 939.261 cycles
cpu0_L1D TOTAL     ACCESS:    5917329  HIT:    3966757  MISS:    1950572
cpu0_L1D LOAD      ACCESS:    1404630  HIT:    1109078  MISS:     295552
cpu0_L1D RFO       ACCESS:    4495175  HIT:    2840164  MISS:    1655011
cpu0_L1D PREFETCH  ACCESS:          0  HIT:          0  MISS:          0
cpu0_L1D WRITEBACK ACCESS:          0  HIT:          0  MISS:          0
cpu0_L1D TRANSLATION ACCESS:      17524  HIT:      17515  MISS:          9
cpu0_L1D PREFETCH  REQUESTED:          0  ISSUED:          0  USEFUL:          0  USELESS:          0
cpu0_L1D AVERAGE MISS LATENCY: 766.32 cycles
cpu0_L2C TOTAL     ACCESS:    4311884  HIT:    3065617  MISS:    1246267
cpu0_L2C LOAD      ACCESS:     295552  HIT:          2  MISS:     295550
cpu0_L2C RFO       ACCESS:    1655011  HIT:     737929  MISS:     917082
cpu0_L2C PREFETCH  ACCESS:     706271  HIT:     672699  MISS:      33572
cpu0_L2C WRITEBACK ACCESS:    1655041  HIT:    1654987  MISS:         54
cpu0_L2C TRANSLATION ACCESS:          9  HIT:          0  MISS:          9
cpu0_L2C PREFETCH  REQUESTED:    1009789  ISSUED:     774382  USEFUL:      33381  USELESS:        192
cpu0_L2C AVERAGE MISS LATENCY: 1216.85 cycles
LLC TOTAL     ACCESS:    2169070  HIT:     953327  MISS:    1215743
LLC LOAD      ACCESS:     295550  HIT:          1  MISS:     295549
LLC RFO       ACCESS:     917012  HIT:      30432  MISS:     886580
LLC PREFETCH  ACCESS:      39285  HIT:       5723  MISS:      33562
LLC WRITEBACK ACCESS:     917214  HIT:     917171  MISS:         43
LLC TRANSLATION ACCESS:          9  HIT:          0  MISS:          9
LLC PREFETCH  REQUESTED:          0  ISSUED:          0  USEFUL:          0  USELESS:          0
LLC AVERAGE MISS LATENCY: 1233.44 cycles

DRAM Statistics
 CHANNEL 0
 RQ ROW_BUFFER_HIT:      33917  ROW_BUFFER_MISS:    1181783
 DBUS AVG_CONGESTED_CYCLE:    4.00303
 WQ ROW_BUFFER_HIT:      13364  ROW_BUFFER_MISS:     873520  FULL:          0


CPU 0 Branch Prediction Accuracy: 95.9842% MPKI: 0.71772 Average ROB Occupancy at Mispredict: 258.811
Branch type MPKI
BRANCH_DIRECT_JUMP: 0
BRANCH_INDIRECT: 0
BRANCH_CONDITIONAL: 0.71772
BRANCH_DIRECT_CALL: 0
BRANCH_INDIRECT_CALL: 0
BRANCH_RETURN: 0

