
*** ChampSim Multicore Out-of-Order Simulator ***

Warmup Instructions: 25000000
Simulation Instructions: 25000000
Number of CPUs: 1
Off-chip DRAM Size: 4 GiB Channels: 1 Width: 64-bit Data Rate: 3200 MT/s

VirtualMemory physical capacity: 8588881920 num_ppages: 2096895
VirtualMemory page size: 4096 log2_page_size: 12

CPU 0 runs /home/vedant/Practicals/AdvanceCA/Assignments/Assignment2/traces/619.lbm_s-2677B.champsimtrace.xz
CPU 0 Bimodal branch predictor
Basic BTB sets: 1024 ways: 8 indirect buffer size: 4096 RAS size: 64
cpu0_L2C Stream prefetcher
WARNING: The extended signature CACHE::prefetch_line(ip, base_addr, pf_addr, fill_this_level, prefetch_metadata) is deprecated.
WARNING: Use CACHE::prefetch_line(pf_addr, fill_this_level, prefetch_metadata) instead.
Heartbeat CPU 0 instructions: 10000001 cycles: 2595098 heartbeat IPC: 3.85342 cumulative IPC: 3.85342 (Simulation time: 0 hr 0 min 45 sec) 
Heartbeat CPU 0 instructions: 20000001 cycles: 5185474 heartbeat IPC: 3.86044 cumulative IPC: 3.85693 (Simulation time: 0 hr 1 min 27 sec) 

Warmup complete CPU 0 instructions: 25000001 cycles: 6480926 (Simulation time: 0 hr 1 min 52 sec) 

Heartbeat CPU 0 instructions: 30000002 cycles: 30026254 heartbeat IPC: 0.402564 cumulative IPC: 0.212356 (Simulation time: 0 hr 4 min 5 sec) 
Heartbeat CPU 0 instructions: 40000004 cycles: 77121351 heartbeat IPC: 0.212336 cumulative IPC: 0.212343 (Simulation time: 0 hr 7 min 47 sec) 
Heartbeat CPU 0 instructions: 50000001 cycles: 125297543 heartbeat IPC: 0.207571 cumulative IPC: 0.210408 (Simulation time: 0 hr 10 min 43 sec) 
Finished CPU 0 instructions: 25000000 cycles: 118816617 cumulative IPC: 0.210408 (Simulation time: 0 hr 10 min 43 sec) 

ChampSim completed all CPUs

Region of Interest Statistics

CPU 0 cumulative IPC: 0.210408 instructions: 25000000 cycles: 118816617
cpu0_DTLB TOTAL     ACCESS:    4451122  HIT:    4417075  MISS:      34047
cpu0_DTLB LOAD      ACCESS:    1981069  HIT:    1976448  MISS:       4621
cpu0_DTLB RFO       ACCESS:    2470053  HIT:    2440627  MISS:      29426
cpu0_DTLB PREFETCH  ACCESS:          0  HIT:          0  MISS:          0
cpu0_DTLB WRITEBACK ACCESS:          0  HIT:          0  MISS:          0
cpu0_DTLB TRANSLATION ACCESS:          0  HIT:          0  MISS:          0
cpu0_DTLB PREFETCH  REQUESTED:          0  ISSUED:          0  USEFUL:          0  USELESS:          0
cpu0_DTLB AVERAGE MISS LATENCY: 518.53 cycles
cpu0_ITLB TOTAL     ACCESS:     471960  HIT:     471960  MISS:          0
cpu0_ITLB LOAD      ACCESS:     471960  HIT:     471960  MISS:          0
cpu0_ITLB RFO       ACCESS:          0  HIT:          0  MISS:          0
cpu0_ITLB PREFETCH  ACCESS:          0  HIT:          0  MISS:          0
cpu0_ITLB WRITEBACK ACCESS:          0  HIT:          0  MISS:          0
cpu0_ITLB TRANSLATION ACCESS:          0  HIT:          0  MISS:          0
cpu0_ITLB PREFETCH  REQUESTED:          0  ISSUED:          0  USEFUL:          0  USELESS:          0
cpu0_ITLB AVERAGE MISS LATENCY: -nan cycles
cpu0_L1I TOTAL     ACCESS:     551901  HIT:     551901  MISS:          0
cpu0_L1I LOAD      ACCESS:     551901  HIT:     551901  MISS:          0
cpu0_L1I RFO       ACCESS:          0  HIT:          0  MISS:          0
cpu0_L1I PREFETCH  ACCESS:          0  HIT:          0  MISS:          0
cpu0_L1I WRITEBACK ACCESS:          0  HIT:          0  MISS:          0
cpu0_L1I TRANSLATION ACCESS:          0  HIT:          0  MISS:          0
cpu0_L1I PREFETCH  REQUESTED:          0  ISSUED:          0  USEFUL:          0  USELESS:          0
cpu0_L1I AVERAGE MISS LATENCY: -nan cycles
cpu0_STLB TOTAL     ACCESS:      34047  HIT:      15571  MISS:      18476
cpu0_STLB LOAD      ACCESS:       4621  HIT:          0  MISS:       4621
cpu0_STLB RFO       ACCESS:      29426  HIT:      15571  MISS:      13855
cpu0_STLB PREFETCH  ACCESS:          0  HIT:          0  MISS:          0
cpu0_STLB WRITEBACK ACCESS:          0  HIT:          0  MISS:          0
cpu0_STLB TRANSLATION ACCESS:          0  HIT:          0  MISS:          0
cpu0_STLB PREFETCH  REQUESTED:          0  ISSUED:          0  USEFUL:          0  USELESS:          0
cpu0_STLB AVERAGE MISS LATENCY: 938.804 cycles
cpu0_L1D TOTAL     ACCESS:    5916203  HIT:    3965636  MISS:    1950567
cpu0_L1D LOAD      ACCESS:    1404478  HIT:    1108930  MISS:     295548
cpu0_L1D RFO       ACCESS:    4494196  HIT:    2839186  MISS:    1655010
cpu0_L1D PREFETCH  ACCESS:          0  HIT:          0  MISS:          0
cpu0_L1D WRITEBACK ACCESS:          0  HIT:          0  MISS:          0
cpu0_L1D TRANSLATION ACCESS:      17529  HIT:      17520  MISS:          9
cpu0_L1D PREFETCH  REQUESTED:          0  ISSUED:          0  USEFUL:          0  USELESS:          0
cpu0_L1D AVERAGE MISS LATENCY: 763.007 cycles
cpu0_L2C TOTAL     ACCESS:    4439624  HIT:    3205299  MISS:    1234325
cpu0_L2C LOAD      ACCESS:     295548  HIT:          2  MISS:     295546
cpu0_L2C RFO       ACCESS:    1655010  HIT:     739427  MISS:     915583
cpu0_L2C PREFETCH  ACCESS:     834019  HIT:     810884  MISS:      23135
cpu0_L2C WRITEBACK ACCESS:    1655038  HIT:    1654986  MISS:         52
cpu0_L2C TRANSLATION ACCESS:          9  HIT:          0  MISS:          9
cpu0_L2C PREFETCH  REQUESTED:    1298579  ISSUED:     891665  USEFUL:      23110  USELESS:         25
cpu0_L2C AVERAGE MISS LATENCY: 1213.62 cycles
LLC TOTAL     ACCESS:    2153616  HIT:     948329  MISS:    1205287
LLC LOAD      ACCESS:     295546  HIT:          1  MISS:     295545
LLC RFO       ACCESS:     915545  HIT:      28964  MISS:     886581
LLC PREFETCH  ACCESS:      26812  HIT:       3699  MISS:      23113
LLC WRITEBACK ACCESS:     915704  HIT:     915665  MISS:         39
LLC TRANSLATION ACCESS:          9  HIT:          0  MISS:          9
LLC PREFETCH  REQUESTED:          0  ISSUED:          0  USEFUL:          0  USELESS:          0
LLC AVERAGE MISS LATENCY: 1226.31 cycles

DRAM Statistics
 CHANNEL 0
 RQ ROW_BUFFER_HIT:      35684  ROW_BUFFER_MISS:    1169564
 DBUS AVG_CONGESTED_CYCLE:    4.00309
 WQ ROW_BUFFER_HIT:      14335  ROW_BUFFER_MISS:     872519  FULL:          0


CPU 0 Branch Prediction Accuracy: 95.9842% MPKI: 0.71772 Average ROB Occupancy at Mispredict: 258.942
Branch type MPKI
BRANCH_DIRECT_JUMP: 0
BRANCH_INDIRECT: 0
BRANCH_CONDITIONAL: 0.71772
BRANCH_DIRECT_CALL: 0
BRANCH_INDIRECT_CALL: 0
BRANCH_RETURN: 0

