
*** ChampSim Multicore Out-of-Order Simulator ***

Warmup Instructions: 25000000
Simulation Instructions: 25000000
Number of CPUs: 1
Off-chip DRAM Size: 4 GiB Channels: 1 Width: 64-bit Data Rate: 3200 MT/s

VirtualMemory physical capacity: 8588881920 num_ppages: 2096895
VirtualMemory page size: 4096 log2_page_size: 12

CPU 0 runs /home/vedant/Practicals/AdvanceCA/Assignments/Assignment2/traces/619.lbm_s-2677B.champsimtrace.xz
CPU 0 Bimodal branch predictor
Basic BTB sets: 1024 ways: 8 indirect buffer size: 4096 RAS size: 64
cpu0_L2C Stream prefetcher
WARNING: The extended signature CACHE::prefetch_line(ip, base_addr, pf_addr, fill_this_level, prefetch_metadata) is deprecated.
WARNING: Use CACHE::prefetch_line(pf_addr, fill_this_level, prefetch_metadata) instead.
Heartbeat CPU 0 instructions: 10000001 cycles: 2593707 heartbeat IPC: 3.85549 cumulative IPC: 3.85549 (Simulation time: 0 hr 0 min 44 sec) 
Heartbeat CPU 0 instructions: 20000001 cycles: 5182592 heartbeat IPC: 3.86267 cumulative IPC: 3.85907 (Simulation time: 0 hr 1 min 29 sec) 

Warmup complete CPU 0 instructions: 25000001 cycles: 6477314 (Simulation time: 0 hr 1 min 50 sec) 

Heartbeat CPU 0 instructions: 30000002 cycles: 29963101 heartbeat IPC: 0.403543 cumulative IPC: 0.212895 (Simulation time: 0 hr 4 min 20 sec) 
Heartbeat CPU 0 instructions: 40000004 cycles: 76954691 heartbeat IPC: 0.212804 cumulative IPC: 0.212834 (Simulation time: 0 hr 7 min 43 sec) 
Heartbeat CPU 0 instructions: 50000001 cycles: 124905423 heartbeat IPC: 0.208547 cumulative IPC: 0.211099 (Simulation time: 0 hr 10 min 39 sec) 
Finished CPU 0 instructions: 25000000 cycles: 118428109 cumulative IPC: 0.211099 (Simulation time: 0 hr 10 min 39 sec) 

ChampSim completed all CPUs

Region of Interest Statistics

CPU 0 cumulative IPC: 0.211099 instructions: 25000000 cycles: 118428109
cpu0_DTLB TOTAL     ACCESS:    4451398  HIT:    4417351  MISS:      34047
cpu0_DTLB LOAD      ACCESS:    1981099  HIT:    1976478  MISS:       4621
cpu0_DTLB RFO       ACCESS:    2470299  HIT:    2440873  MISS:      29426
cpu0_DTLB PREFETCH  ACCESS:          0  HIT:          0  MISS:          0
cpu0_DTLB WRITEBACK ACCESS:          0  HIT:          0  MISS:          0
cpu0_DTLB TRANSLATION ACCESS:          0  HIT:          0  MISS:          0
cpu0_DTLB PREFETCH  REQUESTED:          0  ISSUED:          0  USEFUL:          0  USELESS:          0
cpu0_DTLB AVERAGE MISS LATENCY: 518.939 cycles
cpu0_ITLB TOTAL     ACCESS:     472646  HIT:     472646  MISS:          0
cpu0_ITLB LOAD      ACCESS:     472646  HIT:     472646  MISS:          0
cpu0_ITLB RFO       ACCESS:          0  HIT:          0  MISS:          0
cpu0_ITLB PREFETCH  ACCESS:          0  HIT:          0  MISS:          0
cpu0_ITLB WRITEBACK ACCESS:          0  HIT:          0  MISS:          0
cpu0_ITLB TRANSLATION ACCESS:          0  HIT:          0  MISS:          0
cpu0_ITLB PREFETCH  REQUESTED:          0  ISSUED:          0  USEFUL:          0  USELESS:          0
cpu0_ITLB AVERAGE MISS LATENCY: -nan cycles
cpu0_L1I TOTAL     ACCESS:     551104  HIT:     551104  MISS:          0
cpu0_L1I LOAD      ACCESS:     551104  HIT:     551104  MISS:          0
cpu0_L1I RFO       ACCESS:          0  HIT:          0  MISS:          0
cpu0_L1I PREFETCH  ACCESS:          0  HIT:          0  MISS:          0
cpu0_L1I WRITEBACK ACCESS:          0  HIT:          0  MISS:          0
cpu0_L1I TRANSLATION ACCESS:          0  HIT:          0  MISS:          0
cpu0_L1I PREFETCH  REQUESTED:          0  ISSUED:          0  USEFUL:          0  USELESS:          0
cpu0_L1I AVERAGE MISS LATENCY: -nan cycles
cpu0_STLB TOTAL     ACCESS:      34047  HIT:      15571  MISS:      18476
cpu0_STLB LOAD      ACCESS:       4621  HIT:          0  MISS:       4621
cpu0_STLB RFO       ACCESS:      29426  HIT:      15571  MISS:      13855
cpu0_STLB PREFETCH  ACCESS:          0  HIT:          0  MISS:          0
cpu0_STLB WRITEBACK ACCESS:          0  HIT:          0  MISS:          0
cpu0_STLB TRANSLATION ACCESS:          0  HIT:          0  MISS:          0
cpu0_STLB PREFETCH  REQUESTED:          0  ISSUED:          0  USEFUL:          0  USELESS:          0
cpu0_STLB AVERAGE MISS LATENCY: 939.56 cycles
cpu0_L1D TOTAL     ACCESS:    5917500  HIT:    3966925  MISS:    1950575
cpu0_L1D LOAD      ACCESS:    1404984  HIT:    1109432  MISS:     295552
cpu0_L1D RFO       ACCESS:    4494990  HIT:    2839976  MISS:    1655014
cpu0_L1D PREFETCH  ACCESS:          0  HIT:          0  MISS:          0
cpu0_L1D WRITEBACK ACCESS:          0  HIT:          0  MISS:          0
cpu0_L1D TRANSLATION ACCESS:      17526  HIT:      17517  MISS:          9
cpu0_L1D PREFETCH  REQUESTED:          0  ISSUED:          0  USEFUL:          0  USELESS:          0
cpu0_L1D AVERAGE MISS LATENCY: 759.239 cycles
cpu0_L2C TOTAL     ACCESS:    3941449  HIT:    2721186  MISS:    1220263
cpu0_L2C LOAD      ACCESS:     295552  HIT:          3  MISS:     295549
cpu0_L2C RFO       ACCESS:    1655014  HIT:     739622  MISS:     915392
cpu0_L2C PREFETCH  ACCESS:     335834  HIT:     326578  MISS:       9256
cpu0_L2C WRITEBACK ACCESS:    1655040  HIT:    1654983  MISS:         57
cpu0_L2C TRANSLATION ACCESS:          9  HIT:          0  MISS:          9
cpu0_L2C PREFETCH  REQUESTED:     576656  ISSUED:     356985  USEFUL:       9242  USELESS:         14
cpu0_L2C AVERAGE MISS LATENCY: 1205.84 cycles
LLC TOTAL     ACCESS:    2136676  HIT:     945253  MISS:    1191423
LLC LOAD      ACCESS:     295549  HIT:          2  MISS:     295547
LLC RFO       ACCESS:     915336  HIT:      28755  MISS:     886581
LLC PREFETCH  ACCESS:      10202  HIT:        958  MISS:       9244
LLC WRITEBACK ACCESS:     915580  HIT:     915538  MISS:         42
LLC TRANSLATION ACCESS:          9  HIT:          0  MISS:          9
LLC PREFETCH  REQUESTED:          0  ISSUED:          0  USEFUL:          0  USELESS:          0
LLC AVERAGE MISS LATENCY: 1214.88 cycles

DRAM Statistics
 CHANNEL 0
 RQ ROW_BUFFER_HIT:      35873  ROW_BUFFER_MISS:    1155508
 DBUS AVG_CONGESTED_CYCLE:    4.00293
 WQ ROW_BUFFER_HIT:      16277  ROW_BUFFER_MISS:     870536  FULL:          0


CPU 0 Branch Prediction Accuracy: 95.9842% MPKI: 0.71772 Average ROB Occupancy at Mispredict: 258.892
Branch type MPKI
BRANCH_DIRECT_JUMP: 0
BRANCH_INDIRECT: 0
BRANCH_CONDITIONAL: 0.71772
BRANCH_DIRECT_CALL: 0
BRANCH_INDIRECT_CALL: 0
BRANCH_RETURN: 0

