
*** ChampSim Multicore Out-of-Order Simulator ***

Warmup Instructions: 25000000
Simulation Instructions: 25000000
Number of CPUs: 1
Off-chip DRAM Size: 4 GiB Channels: 1 Width: 64-bit Data Rate: 3200 MT/s

VirtualMemory physical capacity: 8588881920 num_ppages: 2096895
VirtualMemory page size: 4096 log2_page_size: 12

CPU 0 runs /home/vedant/Practicals/AdvanceCA/Assignments/Assignment2/traces/bc-0.trace.gz
CPU 0 Bimodal branch predictor
Basic BTB sets: 1024 ways: 8 indirect buffer size: 4096 RAS size: 64
cpu0_L2C Stream prefetcher
WARNING: The extended signature CACHE::prefetch_line(ip, base_addr, pf_addr, fill_this_level, prefetch_metadata) is deprecated.
WARNING: Use CACHE::prefetch_line(pf_addr, fill_this_level, prefetch_metadata) instead.
Heartbeat CPU 0 instructions: 10000002 cycles: 3204408 heartbeat IPC: 3.1207 cumulative IPC: 3.1207 (Simulation time: 0 hr 0 min 58 sec) 
Heartbeat CPU 0 instructions: 20000001 cycles: 5713280 heartbeat IPC: 3.98585 cumulative IPC: 3.50062 (Simulation time: 0 hr 1 min 41 sec) 

Warmup complete CPU 0 instructions: 25000001 cycles: 6964715 (Simulation time: 0 hr 2 min 2 sec) 

Heartbeat CPU 0 instructions: 30000001 cycles: 48130169 heartbeat IPC: 0.235755 cumulative IPC: 0.121461 (Simulation time: 0 hr 3 min 21 sec) 
Heartbeat CPU 0 instructions: 40000002 cycles: 132118926 heartbeat IPC: 0.119064 cumulative IPC: 0.119852 (Simulation time: 0 hr 5 min 34 sec) 
Heartbeat CPU 0 instructions: 50000002 cycles: 216080281 heartbeat IPC: 0.119102 cumulative IPC: 0.119551 (Simulation time: 0 hr 7 min 24 sec) 
Finished CPU 0 instructions: 25000001 cycles: 209115566 cumulative IPC: 0.119551 (Simulation time: 0 hr 7 min 24 sec) 

ChampSim completed all CPUs

Region of Interest Statistics

CPU 0 cumulative IPC: 0.119551 instructions: 25000001 cycles: 209115566
cpu0_DTLB TOTAL     ACCESS:    5784227  HIT:    5050445  MISS:     733782
cpu0_DTLB LOAD      ACCESS:    4556683  HIT:    4078716  MISS:     477967
cpu0_DTLB RFO       ACCESS:    1227544  HIT:     971729  MISS:     255815
cpu0_DTLB PREFETCH  ACCESS:          0  HIT:          0  MISS:          0
cpu0_DTLB WRITEBACK ACCESS:          0  HIT:          0  MISS:          0
cpu0_DTLB TRANSLATION ACCESS:          0  HIT:          0  MISS:          0
cpu0_DTLB PREFETCH  REQUESTED:          0  ISSUED:          0  USEFUL:          0  USELESS:          0
cpu0_DTLB AVERAGE MISS LATENCY: 13.8622 cycles
cpu0_ITLB TOTAL     ACCESS:    3107161  HIT:    3107161  MISS:          0
cpu0_ITLB LOAD      ACCESS:    3107161  HIT:    3107161  MISS:          0
cpu0_ITLB RFO       ACCESS:          0  HIT:          0  MISS:          0
cpu0_ITLB PREFETCH  ACCESS:          0  HIT:          0  MISS:          0
cpu0_ITLB WRITEBACK ACCESS:          0  HIT:          0  MISS:          0
cpu0_ITLB TRANSLATION ACCESS:          0  HIT:          0  MISS:          0
cpu0_ITLB PREFETCH  REQUESTED:          0  ISSUED:          0  USEFUL:          0  USELESS:          0
cpu0_ITLB AVERAGE MISS LATENCY: -nan cycles
cpu0_L1I TOTAL     ACCESS:         86  HIT:         86  MISS:          0
cpu0_L1I LOAD      ACCESS:         86  HIT:         86  MISS:          0
cpu0_L1I RFO       ACCESS:          0  HIT:          0  MISS:          0
cpu0_L1I PREFETCH  ACCESS:          0  HIT:          0  MISS:          0
cpu0_L1I WRITEBACK ACCESS:          0  HIT:          0  MISS:          0
cpu0_L1I TRANSLATION ACCESS:          0  HIT:          0  MISS:          0
cpu0_L1I PREFETCH  REQUESTED:          0  ISSUED:          0  USEFUL:          0  USELESS:          0
cpu0_L1I AVERAGE MISS LATENCY: -nan cycles
cpu0_STLB TOTAL     ACCESS:     733782  HIT:     397124  MISS:     336658
cpu0_STLB LOAD      ACCESS:     477967  HIT:     310196  MISS:     167771
cpu0_STLB RFO       ACCESS:     255815  HIT:      86928  MISS:     168887
cpu0_STLB PREFETCH  ACCESS:          0  HIT:          0  MISS:          0
cpu0_STLB WRITEBACK ACCESS:          0  HIT:          0  MISS:          0
cpu0_STLB TRANSLATION ACCESS:          0  HIT:          0  MISS:          0
cpu0_STLB PREFETCH  REQUESTED:          0  ISSUED:          0  USEFUL:          0  USELESS:          0
cpu0_STLB AVERAGE MISS LATENCY: 10.4126 cycles
cpu0_L1D TOTAL     ACCESS:    6855530  HIT:    4768838  MISS:    2086692
cpu0_L1D LOAD      ACCESS:    5228627  HIT:    3154360  MISS:    2074267
cpu0_L1D RFO       ACCESS:    1299806  HIT:    1288774  MISS:      11032
cpu0_L1D PREFETCH  ACCESS:          0  HIT:          0  MISS:          0
cpu0_L1D WRITEBACK ACCESS:          0  HIT:          0  MISS:          0
cpu0_L1D TRANSLATION ACCESS:     327097  HIT:     325704  MISS:       1393
cpu0_L1D PREFETCH  REQUESTED:          0  ISSUED:          0  USEFUL:          0  USELESS:          0
cpu0_L1D AVERAGE MISS LATENCY: 197.734 cycles
cpu0_L2C TOTAL     ACCESS:    9802271  HIT:    5354475  MISS:    4447796
cpu0_L2C LOAD      ACCESS:    2074267  HIT:      51119  MISS:    2023148
cpu0_L2C RFO       ACCESS:      11032  HIT:         86  MISS:      10946
cpu0_L2C PREFETCH  ACCESS:    7066758  HIT:    4655940  MISS:    2410818
cpu0_L2C WRITEBACK ACCESS:     648821  HIT:     646146  MISS:       2675
cpu0_L2C TRANSLATION ACCESS:       1393  HIT:       1184  MISS:        209
cpu0_L2C PREFETCH  REQUESTED:    7886254  ISSUED:    7120851  USEFUL:    1460056  USELESS:     949139
cpu0_L2C AVERAGE MISS LATENCY: 111.571 cycles
LLC TOTAL     ACCESS:    5102419  HIT:    3495369  MISS:    1607050
LLC LOAD      ACCESS:    2023148  HIT:     589101  MISS:    1434047
LLC RFO       ACCESS:      10946  HIT:        394  MISS:      10552
LLC PREFETCH  ACCESS:    2421079  HIT:    2258718  MISS:     162361
LLC WRITEBACK ACCESS:     647037  HIT:     647027  MISS:         10
LLC TRANSLATION ACCESS:        209  HIT:        129  MISS:         80
LLC PREFETCH  REQUESTED:          0  ISSUED:          0  USEFUL:          0  USELESS:          0
LLC AVERAGE MISS LATENCY: 251.31 cycles

DRAM Statistics
 CHANNEL 0
 RQ ROW_BUFFER_HIT:     131717  ROW_BUFFER_MISS:    1474584
 DBUS AVG_CONGESTED_CYCLE:    3.95616
 WQ ROW_BUFFER_HIT:       1312  ROW_BUFFER_MISS:     578371  FULL:          0


CPU 0 Branch Prediction Accuracy: 81.1279% MPKI: 35.6282 Average ROB Occupancy at Mispredict: 20.6442
Branch type MPKI
BRANCH_DIRECT_JUMP: 0
BRANCH_INDIRECT: 0
BRANCH_CONDITIONAL: 35.6282
BRANCH_DIRECT_CALL: 0
BRANCH_INDIRECT_CALL: 0
BRANCH_RETURN: 0

