
*** ChampSim Multicore Out-of-Order Simulator ***

Warmup Instructions: 25000000
Simulation Instructions: 25000000
Number of CPUs: 1
Off-chip DRAM Size: 4 GiB Channels: 1 Width: 64-bit Data Rate: 3200 MT/s

VirtualMemory physical capacity: 8588881920 num_ppages: 2096895
VirtualMemory page size: 4096 log2_page_size: 12

CPU 0 runs /home/ravi/ACA/pa2-race-of-prefetchers-random/Traces/bc-0.trace.gz
CPU 0 Bimodal branch predictor
Basic BTB sets: 1024 ways: 8 indirect buffer size: 4096 RAS size: 64
cpu0_L2C IP-based stride prefetcher
WARNING: The extended signature CACHE::prefetch_line(ip, base_addr, pf_addr, fill_this_level, prefetch_metadata) is deprecated.
WARNING: Use CACHE::prefetch_line(pf_addr, fill_this_level, prefetch_metadata) instead.
Heartbeat CPU 0 instructions: 10000002 cycles: 3203426 heartbeat IPC: 3.12166 cumulative IPC: 3.12166 (Simulation time: 0 hr 1 min 0 sec) 
Heartbeat CPU 0 instructions: 20000003 cycles: 5712252 heartbeat IPC: 3.98593 cumulative IPC: 3.50125 (Simulation time: 0 hr 1 min 42 sec) 

Warmup complete CPU 0 instructions: 25000003 cycles: 6963683 (Simulation time: 0 hr 2 min 8 sec) 

Heartbeat CPU 0 instructions: 30000001 cycles: 44859681 heartbeat IPC: 0.255445 cumulative IPC: 0.13194 (Simulation time: 0 hr 3 min 54 sec) 
Heartbeat CPU 0 instructions: 40000002 cycles: 123395724 heartbeat IPC: 0.12733 cumulative IPC: 0.128831 (Simulation time: 0 hr 5 min 48 sec) 
Heartbeat CPU 0 instructions: 50000002 cycles: 202052112 heartbeat IPC: 0.127135 cumulative IPC: 0.128147 (Simulation time: 0 hr 7 min 30 sec) 
Finished CPU 0 instructions: 25000004 cycles: 195088430 cumulative IPC: 0.128147 (Simulation time: 0 hr 7 min 30 sec) 

ChampSim completed all CPUs

Region of Interest Statistics

CPU 0 cumulative IPC: 0.128147 instructions: 25000004 cycles: 195088430
cpu0_DTLB TOTAL     ACCESS:    5782528  HIT:    5048746  MISS:     733782
cpu0_DTLB LOAD      ACCESS:    4555008  HIT:    4077027  MISS:     477981
cpu0_DTLB RFO       ACCESS:    1227520  HIT:     971719  MISS:     255801
cpu0_DTLB PREFETCH  ACCESS:          0  HIT:          0  MISS:          0
cpu0_DTLB WRITEBACK ACCESS:          0  HIT:          0  MISS:          0
cpu0_DTLB TRANSLATION ACCESS:          0  HIT:          0  MISS:          0
cpu0_DTLB PREFETCH  REQUESTED:          0  ISSUED:          0  USEFUL:          0  USELESS:          0
cpu0_DTLB AVERAGE MISS LATENCY: 13.8633 cycles
cpu0_ITLB TOTAL     ACCESS:    3107161  HIT:    3107161  MISS:          0
cpu0_ITLB LOAD      ACCESS:    3107161  HIT:    3107161  MISS:          0
cpu0_ITLB RFO       ACCESS:          0  HIT:          0  MISS:          0
cpu0_ITLB PREFETCH  ACCESS:          0  HIT:          0  MISS:          0
cpu0_ITLB WRITEBACK ACCESS:          0  HIT:          0  MISS:          0
cpu0_ITLB TRANSLATION ACCESS:          0  HIT:          0  MISS:          0
cpu0_ITLB PREFETCH  REQUESTED:          0  ISSUED:          0  USEFUL:          0  USELESS:          0
cpu0_ITLB AVERAGE MISS LATENCY: -nan cycles
cpu0_L1I TOTAL     ACCESS:         86  HIT:         86  MISS:          0
cpu0_L1I LOAD      ACCESS:         86  HIT:         86  MISS:          0
cpu0_L1I RFO       ACCESS:          0  HIT:          0  MISS:          0
cpu0_L1I PREFETCH  ACCESS:          0  HIT:          0  MISS:          0
cpu0_L1I WRITEBACK ACCESS:          0  HIT:          0  MISS:          0
cpu0_L1I TRANSLATION ACCESS:          0  HIT:          0  MISS:          0
cpu0_L1I PREFETCH  REQUESTED:          0  ISSUED:          0  USEFUL:          0  USELESS:          0
cpu0_L1I AVERAGE MISS LATENCY: -nan cycles
cpu0_STLB TOTAL     ACCESS:     733782  HIT:     397124  MISS:     336658
cpu0_STLB LOAD      ACCESS:     477981  HIT:     310200  MISS:     167781
cpu0_STLB RFO       ACCESS:     255801  HIT:      86924  MISS:     168877
cpu0_STLB PREFETCH  ACCESS:          0  HIT:          0  MISS:          0
cpu0_STLB WRITEBACK ACCESS:          0  HIT:          0  MISS:          0
cpu0_STLB TRANSLATION ACCESS:          0  HIT:          0  MISS:          0
cpu0_STLB PREFETCH  REQUESTED:          0  ISSUED:          0  USEFUL:          0  USELESS:          0
cpu0_STLB AVERAGE MISS LATENCY: 10.415 cycles
cpu0_L1D TOTAL     ACCESS:    6850478  HIT:    4763782  MISS:    2086696
cpu0_L1D LOAD      ACCESS:    5223988  HIT:    3149718  MISS:    2074270
cpu0_L1D RFO       ACCESS:    1299398  HIT:    1288366  MISS:      11032
cpu0_L1D PREFETCH  ACCESS:          0  HIT:          0  MISS:          0
cpu0_L1D WRITEBACK ACCESS:          0  HIT:          0  MISS:          0
cpu0_L1D TRANSLATION ACCESS:     327092  HIT:     325698  MISS:       1394
cpu0_L1D PREFETCH  REQUESTED:          0  ISSUED:          0  USEFUL:          0  USELESS:          0
cpu0_L1D AVERAGE MISS LATENCY: 179.34 cycles
cpu0_L2C TOTAL     ACCESS:    3714185  HIT:    1564717  MISS:    2149468
cpu0_L2C LOAD      ACCESS:    2074270  HIT:     210175  MISS:    1864095
cpu0_L2C RFO       ACCESS:      11032  HIT:        119  MISS:      10913
cpu0_L2C PREFETCH  ACCESS:     978668  HIT:     704271  MISS:     274397
cpu0_L2C WRITEBACK ACCESS:     648821  HIT:     648805  MISS:         16
cpu0_L2C TRANSLATION ACCESS:       1394  HIT:       1347  MISS:         47
cpu0_L2C PREFETCH  REQUESTED:    1022834  ISSUED:    1000100  USEFUL:      70824  USELESS:     204333
cpu0_L2C AVERAGE MISS LATENCY: 206.633 cycles
LLC TOTAL     ACCESS:    2785299  HIT:    1233139  MISS:    1552160
LLC LOAD      ACCESS:    1864095  HIT:     568543  MISS:    1295552
LLC RFO       ACCESS:      10913  HIT:        459  MISS:      10454
LLC PREFETCH  ACCESS:     275009  HIT:      28959  MISS:     246050
LLC WRITEBACK ACCESS:     635235  HIT:     635167  MISS:         68
LLC TRANSLATION ACCESS:         47  HIT:         11  MISS:         36
LLC PREFETCH  REQUESTED:          0  ISSUED:          0  USEFUL:          0  USELESS:          0
LLC AVERAGE MISS LATENCY: 257.473 cycles

DRAM Statistics
 CHANNEL 0
 RQ ROW_BUFFER_HIT:      98047  ROW_BUFFER_MISS:    1453364
 DBUS AVG_CONGESTED_CYCLE:    3.95911
 WQ ROW_BUFFER_HIT:       1101  ROW_BUFFER_MISS:     553174  FULL:          0


CPU 0 Branch Prediction Accuracy: 81.1279% MPKI: 35.6282 Average ROB Occupancy at Mispredict: 21.8395
Branch type MPKI
BRANCH_DIRECT_JUMP: 0
BRANCH_INDIRECT: 0
BRANCH_CONDITIONAL: 35.6282
BRANCH_DIRECT_CALL: 0
BRANCH_INDIRECT_CALL: 0
BRANCH_RETURN: 0

