
*** ChampSim Multicore Out-of-Order Simulator ***

Warmup Instructions: 25000000
Simulation Instructions: 25000000
Number of CPUs: 1
Off-chip DRAM Size: 4 GiB Channels: 1 Width: 64-bit Data Rate: 3200 MT/s

VirtualMemory physical capacity: 8588881920 num_ppages: 2096895
VirtualMemory page size: 4096 log2_page_size: 12

CPU 0 runs /home/vedant/Practicals/AdvanceCA/Assignments/Assignment2/traces/bc-0.trace.gz
CPU 0 Bimodal branch predictor
Basic BTB sets: 1024 ways: 8 indirect buffer size: 4096 RAS size: 64
cpu0_L2C Hybrid Stream + IP-based stride prefetcher
WARNING: The extended signature CACHE::prefetch_line(ip, base_addr, pf_addr, fill_this_level, prefetch_metadata) is deprecated.
WARNING: Use CACHE::prefetch_line(pf_addr, fill_this_level, prefetch_metadata) instead.
Heartbeat CPU 0 instructions: 10000002 cycles: 3203547 heartbeat IPC: 3.12154 cumulative IPC: 3.12154 (Simulation time: 0 hr 1 min 0 sec) 
Heartbeat CPU 0 instructions: 20000001 cycles: 5712371 heartbeat IPC: 3.98593 cumulative IPC: 3.50117 (Simulation time: 0 hr 1 min 45 sec) 

Warmup complete CPU 0 instructions: 25000001 cycles: 6963802 (Simulation time: 0 hr 2 min 8 sec) 

Heartbeat CPU 0 instructions: 30000001 cycles: 45277427 heartbeat IPC: 0.252748 cumulative IPC: 0.130502 (Simulation time: 0 hr 3 min 15 sec) 
Heartbeat CPU 0 instructions: 40000002 cycles: 123932906 heartbeat IPC: 0.127137 cumulative IPC: 0.128239 (Simulation time: 0 hr 5 min 17 sec) 
Heartbeat CPU 0 instructions: 50000002 cycles: 202442296 heartbeat IPC: 0.127373 cumulative IPC: 0.127891 (Simulation time: 0 hr 7 min 2 sec) 
Finished CPU 0 instructions: 25000001 cycles: 195478494 cumulative IPC: 0.127891 (Simulation time: 0 hr 7 min 2 sec) 

ChampSim completed all CPUs

Region of Interest Statistics

CPU 0 cumulative IPC: 0.127891 instructions: 25000001 cycles: 195478494
cpu0_DTLB TOTAL     ACCESS:    5782732  HIT:    5048950  MISS:     733782
cpu0_DTLB LOAD      ACCESS:    4555166  HIT:    4077183  MISS:     477983
cpu0_DTLB RFO       ACCESS:    1227566  HIT:     971767  MISS:     255799
cpu0_DTLB PREFETCH  ACCESS:          0  HIT:          0  MISS:          0
cpu0_DTLB WRITEBACK ACCESS:          0  HIT:          0  MISS:          0
cpu0_DTLB TRANSLATION ACCESS:          0  HIT:          0  MISS:          0
cpu0_DTLB PREFETCH  REQUESTED:          0  ISSUED:          0  USEFUL:          0  USELESS:          0
cpu0_DTLB AVERAGE MISS LATENCY: 13.8635 cycles
cpu0_ITLB TOTAL     ACCESS:    3107161  HIT:    3107161  MISS:          0
cpu0_ITLB LOAD      ACCESS:    3107161  HIT:    3107161  MISS:          0
cpu0_ITLB RFO       ACCESS:          0  HIT:          0  MISS:          0
cpu0_ITLB PREFETCH  ACCESS:          0  HIT:          0  MISS:          0
cpu0_ITLB WRITEBACK ACCESS:          0  HIT:          0  MISS:          0
cpu0_ITLB TRANSLATION ACCESS:          0  HIT:          0  MISS:          0
cpu0_ITLB PREFETCH  REQUESTED:          0  ISSUED:          0  USEFUL:          0  USELESS:          0
cpu0_ITLB AVERAGE MISS LATENCY: -nan cycles
cpu0_L1I TOTAL     ACCESS:         86  HIT:         86  MISS:          0
cpu0_L1I LOAD      ACCESS:         86  HIT:         86  MISS:          0
cpu0_L1I RFO       ACCESS:          0  HIT:          0  MISS:          0
cpu0_L1I PREFETCH  ACCESS:          0  HIT:          0  MISS:          0
cpu0_L1I WRITEBACK ACCESS:          0  HIT:          0  MISS:          0
cpu0_L1I TRANSLATION ACCESS:          0  HIT:          0  MISS:          0
cpu0_L1I PREFETCH  REQUESTED:          0  ISSUED:          0  USEFUL:          0  USELESS:          0
cpu0_L1I AVERAGE MISS LATENCY: -nan cycles
cpu0_STLB TOTAL     ACCESS:     733782  HIT:     397124  MISS:     336658
cpu0_STLB LOAD      ACCESS:     477983  HIT:     310199  MISS:     167784
cpu0_STLB RFO       ACCESS:     255799  HIT:      86925  MISS:     168874
cpu0_STLB PREFETCH  ACCESS:          0  HIT:          0  MISS:          0
cpu0_STLB WRITEBACK ACCESS:          0  HIT:          0  MISS:          0
cpu0_STLB TRANSLATION ACCESS:          0  HIT:          0  MISS:          0
cpu0_STLB PREFETCH  REQUESTED:          0  ISSUED:          0  USEFUL:          0  USELESS:          0
cpu0_STLB AVERAGE MISS LATENCY: 10.4154 cycles
cpu0_L1D TOTAL     ACCESS:    6851486  HIT:    4764792  MISS:    2086694
cpu0_L1D LOAD      ACCESS:    5224930  HIT:    3150662  MISS:    2074268
cpu0_L1D RFO       ACCESS:    1299463  HIT:    1288431  MISS:      11032
cpu0_L1D PREFETCH  ACCESS:          0  HIT:          0  MISS:          0
cpu0_L1D WRITEBACK ACCESS:          0  HIT:          0  MISS:          0
cpu0_L1D TRANSLATION ACCESS:     327093  HIT:     325699  MISS:       1394
cpu0_L1D PREFETCH  REQUESTED:          0  ISSUED:          0  USEFUL:          0  USELESS:          0
cpu0_L1D AVERAGE MISS LATENCY: 180.243 cycles
cpu0_L2C TOTAL     ACCESS:    5792486  HIT:    3087280  MISS:    2705206
cpu0_L2C LOAD      ACCESS:    2074268  HIT:     124368  MISS:    1949900
cpu0_L2C RFO       ACCESS:      11032  HIT:        102  MISS:      10930
cpu0_L2C PREFETCH  ACCESS:    3056970  HIT:    2312785  MISS:     744185
cpu0_L2C WRITEBACK ACCESS:     648822  HIT:     648700  MISS:        122
cpu0_L2C TRANSLATION ACCESS:       1394  HIT:       1325  MISS:         69
cpu0_L2C PREFETCH  REQUESTED:    3619848  ISSUED:    3072612  USEFUL:     518266  USELESS:     225653
cpu0_L2C AVERAGE MISS LATENCY: 148.177 cycles
LLC TOTAL     ACCESS:    3347893  HIT:    1913057  MISS:    1434836
LLC LOAD      ACCESS:    1949900  HIT:     635927  MISS:    1313973
LLC RFO       ACCESS:      10930  HIT:        461  MISS:      10469
LLC PREFETCH  ACCESS:     744751  HIT:     634422  MISS:     110329
LLC WRITEBACK ACCESS:     642243  HIT:     642228  MISS:         15
LLC TRANSLATION ACCESS:         69  HIT:         19  MISS:         50
LLC PREFETCH  REQUESTED:          0  ISSUED:          0  USEFUL:          0  USELESS:          0
LLC AVERAGE MISS LATENCY: 239.912 cycles

DRAM Statistics
 CHANNEL 0
 RQ ROW_BUFFER_HIT:      63537  ROW_BUFFER_MISS:    1370597
 DBUS AVG_CONGESTED_CYCLE:    3.95678
 WQ ROW_BUFFER_HIT:       1061  ROW_BUFFER_MISS:     557301  FULL:          0


CPU 0 Branch Prediction Accuracy: 81.1279% MPKI: 35.6282 Average ROB Occupancy at Mispredict: 21.596
Branch type MPKI
BRANCH_DIRECT_JUMP: 0
BRANCH_INDIRECT: 0
BRANCH_CONDITIONAL: 35.6282
BRANCH_DIRECT_CALL: 0
BRANCH_INDIRECT_CALL: 0
BRANCH_RETURN: 0

