
*** ChampSim Multicore Out-of-Order Simulator ***

Warmup Instructions: 25000000
Simulation Instructions: 25000000
Number of CPUs: 1
Off-chip DRAM Size: 4 GiB Channels: 1 Width: 64-bit Data Rate: 3200 MT/s

VirtualMemory physical capacity: 8588881920 num_ppages: 2096895
VirtualMemory page size: 4096 log2_page_size: 12

CPU 0 runs /home/yogo/Documents/clonos/pa2-race-of-prefetchers-template/traces/bc-0.trace.gz
CPU 0 Bimodal branch predictor
Basic BTB sets: 1024 ways: 8 indirect buffer size: 4096 RAS size: 64
cpu0_L2C Hybrid Stream + IP-based stride prefetcher
WARNING: The extended signature CACHE::prefetch_line(ip, base_addr, pf_addr, fill_this_level, prefetch_metadata) is deprecated.
WARNING: Use CACHE::prefetch_line(pf_addr, fill_this_level, prefetch_metadata) instead.
Heartbeat CPU 0 instructions: 10000002 cycles: 3203969 heartbeat IPC: 3.12113 cumulative IPC: 3.12113 (Simulation time: 0 hr 0 min 46 sec) 
Heartbeat CPU 0 instructions: 20000001 cycles: 5712837 heartbeat IPC: 3.98586 cumulative IPC: 3.50089 (Simulation time: 0 hr 1 min 23 sec) 

Warmup complete CPU 0 instructions: 25000002 cycles: 6964273 (Simulation time: 0 hr 1 min 48 sec) 

Heartbeat CPU 0 instructions: 30000001 cycles: 47604653 heartbeat IPC: 0.23871 cumulative IPC: 0.12303 (Simulation time: 0 hr 3 min 33 sec) 
Heartbeat CPU 0 instructions: 40000002 cycles: 130984076 heartbeat IPC: 0.119934 cumulative IPC: 0.120948 (Simulation time: 0 hr 5 min 31 sec) 
Heartbeat CPU 0 instructions: 50000002 cycles: 214354561 heartbeat IPC: 0.119947 cumulative IPC: 0.120546 (Simulation time: 0 hr 7 min 9 sec) 
Finished CPU 0 instructions: 25000000 cycles: 207390288 cumulative IPC: 0.120546 (Simulation time: 0 hr 7 min 9 sec) 

ChampSim completed all CPUs

Region of Interest Statistics

CPU 0 cumulative IPC: 0.120546 instructions: 25000000 cycles: 207390288
cpu0_DTLB TOTAL     ACCESS:    5783871  HIT:    5050089  MISS:     733782
cpu0_DTLB LOAD      ACCESS:    4556370  HIT:    4078401  MISS:     477969
cpu0_DTLB RFO       ACCESS:    1227501  HIT:     971688  MISS:     255813
cpu0_DTLB PREFETCH  ACCESS:          0  HIT:          0  MISS:          0
cpu0_DTLB WRITEBACK ACCESS:          0  HIT:          0  MISS:          0
cpu0_DTLB TRANSLATION ACCESS:          0  HIT:          0  MISS:          0
cpu0_DTLB PREFETCH  REQUESTED:          0  ISSUED:          0  USEFUL:          0  USELESS:          0
cpu0_DTLB AVERAGE MISS LATENCY: 13.8748 cycles
cpu0_ITLB TOTAL     ACCESS:    3107161  HIT:    3107161  MISS:          0
cpu0_ITLB LOAD      ACCESS:    3107161  HIT:    3107161  MISS:          0
cpu0_ITLB RFO       ACCESS:          0  HIT:          0  MISS:          0
cpu0_ITLB PREFETCH  ACCESS:          0  HIT:          0  MISS:          0
cpu0_ITLB WRITEBACK ACCESS:          0  HIT:          0  MISS:          0
cpu0_ITLB TRANSLATION ACCESS:          0  HIT:          0  MISS:          0
cpu0_ITLB PREFETCH  REQUESTED:          0  ISSUED:          0  USEFUL:          0  USELESS:          0
cpu0_ITLB AVERAGE MISS LATENCY: -nan cycles
cpu0_L1I TOTAL     ACCESS:         86  HIT:         86  MISS:          0
cpu0_L1I LOAD      ACCESS:         86  HIT:         86  MISS:          0
cpu0_L1I RFO       ACCESS:          0  HIT:          0  MISS:          0
cpu0_L1I PREFETCH  ACCESS:          0  HIT:          0  MISS:          0
cpu0_L1I WRITEBACK ACCESS:          0  HIT:          0  MISS:          0
cpu0_L1I TRANSLATION ACCESS:          0  HIT:          0  MISS:          0
cpu0_L1I PREFETCH  REQUESTED:          0  ISSUED:          0  USEFUL:          0  USELESS:          0
cpu0_L1I AVERAGE MISS LATENCY: -nan cycles
cpu0_STLB TOTAL     ACCESS:     733782  HIT:     397124  MISS:     336658
cpu0_STLB LOAD      ACCESS:     477969  HIT:     310196  MISS:     167773
cpu0_STLB RFO       ACCESS:     255813  HIT:      86928  MISS:     168885
cpu0_STLB PREFETCH  ACCESS:          0  HIT:          0  MISS:          0
cpu0_STLB WRITEBACK ACCESS:          0  HIT:          0  MISS:          0
cpu0_STLB TRANSLATION ACCESS:          0  HIT:          0  MISS:          0
cpu0_STLB PREFETCH  REQUESTED:          0  ISSUED:          0  USEFUL:          0  USELESS:          0
cpu0_STLB AVERAGE MISS LATENCY: 10.4401 cycles
cpu0_L1D TOTAL     ACCESS:    6854523  HIT:    4767832  MISS:    2086691
cpu0_L1D LOAD      ACCESS:    5227645  HIT:    3153379  MISS:    2074266
cpu0_L1D RFO       ACCESS:    1299783  HIT:    1288751  MISS:      11032
cpu0_L1D PREFETCH  ACCESS:          0  HIT:          0  MISS:          0
cpu0_L1D WRITEBACK ACCESS:          0  HIT:          0  MISS:          0
cpu0_L1D TRANSLATION ACCESS:     327095  HIT:     325702  MISS:       1393
cpu0_L1D PREFETCH  REQUESTED:          0  ISSUED:          0  USEFUL:          0  USELESS:          0
cpu0_L1D AVERAGE MISS LATENCY: 195.754 cycles
cpu0_L2C TOTAL     ACCESS:    8528821  HIT:    4607773  MISS:    3921048
cpu0_L2C LOAD      ACCESS:    2074266  HIT:      66596  MISS:    2007670
cpu0_L2C RFO       ACCESS:      11032  HIT:         87  MISS:      10945
cpu0_L2C PREFETCH  ACCESS:    5793309  HIT:    3892335  MISS:    1900974
cpu0_L2C WRITEBACK ACCESS:     648821  HIT:     647508  MISS:       1313
cpu0_L2C TRANSLATION ACCESS:       1393  HIT:       1247  MISS:        146
cpu0_L2C PREFETCH  REQUESTED:    6503775  ISSUED:    5835572  USEFUL:    1177605  USELESS:     722353
cpu0_L2C AVERAGE MISS LATENCY: 126.509 cycles
LLC TOTAL     ACCESS:    4570872  HIT:    2927212  MISS:    1643660
LLC LOAD      ACCESS:    2007670  HIT:     592314  MISS:    1415356
LLC RFO       ACCESS:      10945  HIT:        392  MISS:      10553
LLC PREFETCH  ACCESS:    1906058  HIT:    1688395  MISS:     217663
LLC WRITEBACK ACCESS:     646053  HIT:     646039  MISS:         14
LLC TRANSLATION ACCESS:        146  HIT:         72  MISS:         74
LLC PREFETCH  REQUESTED:          0  ISSUED:          0  USEFUL:          0  USELESS:          0
LLC AVERAGE MISS LATENCY: 252.219 cycles

DRAM Statistics
 CHANNEL 0
 RQ ROW_BUFFER_HIT:     107451  ROW_BUFFER_MISS:    1535486
 DBUS AVG_CONGESTED_CYCLE:    3.95661
 WQ ROW_BUFFER_HIT:       1137  ROW_BUFFER_MISS:     575729  FULL:          0


CPU 0 Branch Prediction Accuracy: 81.1279% MPKI: 35.6282 Average ROB Occupancy at Mispredict: 20.8458
Branch type MPKI
BRANCH_DIRECT_JUMP: 0
BRANCH_INDIRECT: 0
BRANCH_CONDITIONAL: 35.6282
BRANCH_DIRECT_CALL: 0
BRANCH_INDIRECT_CALL: 0
BRANCH_RETURN: 0

