
*** ChampSim Multicore Out-of-Order Simulator ***

Warmup Instructions: 25000000
Simulation Instructions: 25000000
Number of CPUs: 1
Off-chip DRAM Size: 4 GiB Channels: 1 Width: 64-bit Data Rate: 3200 MT/s

VirtualMemory physical capacity: 8588881920 num_ppages: 2096895
VirtualMemory page size: 4096 log2_page_size: 12

CPU 0 runs /home/yogo/Documents/clonos/pa2-race-of-prefetchers-template/traces/bc-0.trace.gz
CPU 0 Bimodal branch predictor
Basic BTB sets: 1024 ways: 8 indirect buffer size: 4096 RAS size: 64
cpu0_L2C Hybrid Stream + IP-based stride prefetcher
WARNING: The extended signature CACHE::prefetch_line(ip, base_addr, pf_addr, fill_this_level, prefetch_metadata) is deprecated.
WARNING: Use CACHE::prefetch_line(pf_addr, fill_this_level, prefetch_metadata) instead.
Heartbeat CPU 0 instructions: 10000002 cycles: 3203657 heartbeat IPC: 3.12143 cumulative IPC: 3.12143 (Simulation time: 0 hr 0 min 50 sec) 
Heartbeat CPU 0 instructions: 20000001 cycles: 5712513 heartbeat IPC: 3.98588 cumulative IPC: 3.50109 (Simulation time: 0 hr 1 min 32 sec) 

Warmup complete CPU 0 instructions: 25000001 cycles: 6963945 (Simulation time: 0 hr 1 min 50 sec) 

Heartbeat CPU 0 instructions: 30000001 cycles: 46493256 heartbeat IPC: 0.245214 cumulative IPC: 0.126488 (Simulation time: 0 hr 2 min 47 sec) 
Heartbeat CPU 0 instructions: 40000002 cycles: 127675431 heartbeat IPC: 0.12318 cumulative IPC: 0.124263 (Simulation time: 0 hr 4 min 38 sec) 
Heartbeat CPU 0 instructions: 50000002 cycles: 208811766 heartbeat IPC: 0.123249 cumulative IPC: 0.123856 (Simulation time: 0 hr 6 min 26 sec) 
Finished CPU 0 instructions: 25000001 cycles: 201847821 cumulative IPC: 0.123856 (Simulation time: 0 hr 6 min 26 sec) 

ChampSim completed all CPUs

Region of Interest Statistics

CPU 0 cumulative IPC: 0.123856 instructions: 25000001 cycles: 201847821
cpu0_DTLB TOTAL     ACCESS:    5783395  HIT:    5049613  MISS:     733782
cpu0_DTLB LOAD      ACCESS:    4555880  HIT:    4077908  MISS:     477972
cpu0_DTLB RFO       ACCESS:    1227515  HIT:     971705  MISS:     255810
cpu0_DTLB PREFETCH  ACCESS:          0  HIT:          0  MISS:          0
cpu0_DTLB WRITEBACK ACCESS:          0  HIT:          0  MISS:          0
cpu0_DTLB TRANSLATION ACCESS:          0  HIT:          0  MISS:          0
cpu0_DTLB PREFETCH  REQUESTED:          0  ISSUED:          0  USEFUL:          0  USELESS:          0
cpu0_DTLB AVERAGE MISS LATENCY: 13.8878 cycles
cpu0_ITLB TOTAL     ACCESS:    3107161  HIT:    3107161  MISS:          0
cpu0_ITLB LOAD      ACCESS:    3107161  HIT:    3107161  MISS:          0
cpu0_ITLB RFO       ACCESS:          0  HIT:          0  MISS:          0
cpu0_ITLB PREFETCH  ACCESS:          0  HIT:          0  MISS:          0
cpu0_ITLB WRITEBACK ACCESS:          0  HIT:          0  MISS:          0
cpu0_ITLB TRANSLATION ACCESS:          0  HIT:          0  MISS:          0
cpu0_ITLB PREFETCH  REQUESTED:          0  ISSUED:          0  USEFUL:          0  USELESS:          0
cpu0_ITLB AVERAGE MISS LATENCY: -nan cycles
cpu0_L1I TOTAL     ACCESS:         86  HIT:         86  MISS:          0
cpu0_L1I LOAD      ACCESS:         86  HIT:         86  MISS:          0
cpu0_L1I RFO       ACCESS:          0  HIT:          0  MISS:          0
cpu0_L1I PREFETCH  ACCESS:          0  HIT:          0  MISS:          0
cpu0_L1I WRITEBACK ACCESS:          0  HIT:          0  MISS:          0
cpu0_L1I TRANSLATION ACCESS:          0  HIT:          0  MISS:          0
cpu0_L1I PREFETCH  REQUESTED:          0  ISSUED:          0  USEFUL:          0  USELESS:          0
cpu0_L1I AVERAGE MISS LATENCY: -nan cycles
cpu0_STLB TOTAL     ACCESS:     733782  HIT:     397124  MISS:     336658
cpu0_STLB LOAD      ACCESS:     477972  HIT:     310196  MISS:     167776
cpu0_STLB RFO       ACCESS:     255810  HIT:      86928  MISS:     168882
cpu0_STLB PREFETCH  ACCESS:          0  HIT:          0  MISS:          0
cpu0_STLB WRITEBACK ACCESS:          0  HIT:          0  MISS:          0
cpu0_STLB TRANSLATION ACCESS:          0  HIT:          0  MISS:          0
cpu0_STLB PREFETCH  REQUESTED:          0  ISSUED:          0  USEFUL:          0  USELESS:          0
cpu0_STLB AVERAGE MISS LATENCY: 10.4683 cycles
cpu0_L1D TOTAL     ACCESS:    6853106  HIT:    4766413  MISS:    2086693
cpu0_L1D LOAD      ACCESS:    5226403  HIT:    3152136  MISS:    2074267
cpu0_L1D RFO       ACCESS:    1299608  HIT:    1288576  MISS:      11032
cpu0_L1D PREFETCH  ACCESS:          0  HIT:          0  MISS:          0
cpu0_L1D WRITEBACK ACCESS:          0  HIT:          0  MISS:          0
cpu0_L1D TRANSLATION ACCESS:     327095  HIT:     325701  MISS:       1394
cpu0_L1D PREFETCH  REQUESTED:          0  ISSUED:          0  USEFUL:          0  USELESS:          0
cpu0_L1D AVERAGE MISS LATENCY: 188.625 cycles
cpu0_L2C TOTAL     ACCESS:    7221847  HIT:    3921935  MISS:    3299912
cpu0_L2C LOAD      ACCESS:    2074267  HIT:      90813  MISS:    1983454
cpu0_L2C RFO       ACCESS:      11032  HIT:         96  MISS:      10936
cpu0_L2C PREFETCH  ACCESS:    4486333  HIT:    3181459  MISS:    1304874
cpu0_L2C WRITEBACK ACCESS:     648821  HIT:     648281  MISS:        540
cpu0_L2C TRANSLATION ACCESS:       1394  HIT:       1286  MISS:        108
cpu0_L2C PREFETCH  REQUESTED:    5121597  ISSUED:    4513456  USEFUL:     854628  USELESS:     449590
cpu0_L2C AVERAGE MISS LATENCY: 136.485 cycles
LLC TOTAL     ACCESS:    3945877  HIT:    2398263  MISS:    1547614
LLC LOAD      ACCESS:    1983454  HIT:     615104  MISS:    1368350
LLC RFO       ACCESS:      10936  HIT:        419  MISS:      10517
LLC PREFETCH  ACCESS:    1306746  HIT:    1138077  MISS:     168669
LLC WRITEBACK ACCESS:     644633  HIT:     644620  MISS:         13
LLC TRANSLATION ACCESS:        108  HIT:         43  MISS:         65
LLC PREFETCH  REQUESTED:          0  ISSUED:          0  USEFUL:          0  USELESS:          0
LLC AVERAGE MISS LATENCY: 246.513 cycles

DRAM Statistics
 CHANNEL 0
 RQ ROW_BUFFER_HIT:      83034  ROW_BUFFER_MISS:    1463819
 DBUS AVG_CONGESTED_CYCLE:    3.95675
 WQ ROW_BUFFER_HIT:       1112  ROW_BUFFER_MISS:     567504  FULL:          0


CPU 0 Branch Prediction Accuracy: 81.1279% MPKI: 35.6282 Average ROB Occupancy at Mispredict: 21.1826
Branch type MPKI
BRANCH_DIRECT_JUMP: 0
BRANCH_INDIRECT: 0
BRANCH_CONDITIONAL: 35.6282
BRANCH_DIRECT_CALL: 0
BRANCH_INDIRECT_CALL: 0
BRANCH_RETURN: 0

