
*** ChampSim Multicore Out-of-Order Simulator ***

Warmup Instructions: 25000000
Simulation Instructions: 25000000
Number of CPUs: 1
Off-chip DRAM Size: 4 GiB Channels: 1 Width: 64-bit Data Rate: 3200 MT/s

VirtualMemory physical capacity: 8588881920 num_ppages: 2096895
VirtualMemory page size: 4096 log2_page_size: 12

CPU 0 runs /home/yogo/Documents/clonos/pa2-race-of-prefetchers-template/traces/bc-0.trace.gz
CPU 0 Bimodal branch predictor
Basic BTB sets: 1024 ways: 8 indirect buffer size: 4096 RAS size: 64
cpu0_L2C Hybrid Stream + IP-based stride prefetcher
WARNING: The extended signature CACHE::prefetch_line(ip, base_addr, pf_addr, fill_this_level, prefetch_metadata) is deprecated.
WARNING: Use CACHE::prefetch_line(pf_addr, fill_this_level, prefetch_metadata) instead.
Heartbeat CPU 0 instructions: 10000002 cycles: 3204281 heartbeat IPC: 3.12083 cumulative IPC: 3.12083 (Simulation time: 0 hr 0 min 56 sec) 
Heartbeat CPU 0 instructions: 20000001 cycles: 5713188 heartbeat IPC: 3.9858 cumulative IPC: 3.50067 (Simulation time: 0 hr 1 min 53 sec) 

Warmup complete CPU 0 instructions: 25000001 cycles: 6964640 (Simulation time: 0 hr 2 min 21 sec) 

Heartbeat CPU 0 instructions: 30000001 cycles: 48971406 heartbeat IPC: 0.23117 cumulative IPC: 0.119028 (Simulation time: 0 hr 4 min 6 sec) 
Heartbeat CPU 0 instructions: 40000002 cycles: 135095587 heartbeat IPC: 0.116111 cumulative IPC: 0.117068 (Simulation time: 0 hr 5 min 55 sec) 
Heartbeat CPU 0 instructions: 50000002 cycles: 221307937 heartbeat IPC: 0.115993 cumulative IPC: 0.116635 (Simulation time: 0 hr 7 min 36 sec) 
Finished CPU 0 instructions: 25000001 cycles: 214343297 cumulative IPC: 0.116635 (Simulation time: 0 hr 7 min 36 sec) 

ChampSim completed all CPUs

Region of Interest Statistics

CPU 0 cumulative IPC: 0.116635 instructions: 25000001 cycles: 214343297
cpu0_DTLB TOTAL     ACCESS:    5784488  HIT:    5050706  MISS:     733782
cpu0_DTLB LOAD      ACCESS:    4556908  HIT:    4078948  MISS:     477960
cpu0_DTLB RFO       ACCESS:    1227580  HIT:     971758  MISS:     255822
cpu0_DTLB PREFETCH  ACCESS:          0  HIT:          0  MISS:          0
cpu0_DTLB WRITEBACK ACCESS:          0  HIT:          0  MISS:          0
cpu0_DTLB TRANSLATION ACCESS:          0  HIT:          0  MISS:          0
cpu0_DTLB PREFETCH  REQUESTED:          0  ISSUED:          0  USEFUL:          0  USELESS:          0
cpu0_DTLB AVERAGE MISS LATENCY: 13.87 cycles
cpu0_ITLB TOTAL     ACCESS:    3107161  HIT:    3107161  MISS:          0
cpu0_ITLB LOAD      ACCESS:    3107161  HIT:    3107161  MISS:          0
cpu0_ITLB RFO       ACCESS:          0  HIT:          0  MISS:          0
cpu0_ITLB PREFETCH  ACCESS:          0  HIT:          0  MISS:          0
cpu0_ITLB WRITEBACK ACCESS:          0  HIT:          0  MISS:          0
cpu0_ITLB TRANSLATION ACCESS:          0  HIT:          0  MISS:          0
cpu0_ITLB PREFETCH  REQUESTED:          0  ISSUED:          0  USEFUL:          0  USELESS:          0
cpu0_ITLB AVERAGE MISS LATENCY: -nan cycles
cpu0_L1I TOTAL     ACCESS:         86  HIT:         86  MISS:          0
cpu0_L1I LOAD      ACCESS:         86  HIT:         86  MISS:          0
cpu0_L1I RFO       ACCESS:          0  HIT:          0  MISS:          0
cpu0_L1I PREFETCH  ACCESS:          0  HIT:          0  MISS:          0
cpu0_L1I WRITEBACK ACCESS:          0  HIT:          0  MISS:          0
cpu0_L1I TRANSLATION ACCESS:          0  HIT:          0  MISS:          0
cpu0_L1I PREFETCH  REQUESTED:          0  ISSUED:          0  USEFUL:          0  USELESS:          0
cpu0_L1I AVERAGE MISS LATENCY: -nan cycles
cpu0_STLB TOTAL     ACCESS:     733782  HIT:     397124  MISS:     336658
cpu0_STLB LOAD      ACCESS:     477960  HIT:     310194  MISS:     167766
cpu0_STLB RFO       ACCESS:     255822  HIT:      86930  MISS:     168892
cpu0_STLB PREFETCH  ACCESS:          0  HIT:          0  MISS:          0
cpu0_STLB WRITEBACK ACCESS:          0  HIT:          0  MISS:          0
cpu0_STLB TRANSLATION ACCESS:          0  HIT:          0  MISS:          0
cpu0_STLB PREFETCH  REQUESTED:          0  ISSUED:          0  USEFUL:          0  USELESS:          0
cpu0_STLB AVERAGE MISS LATENCY: 10.4296 cycles
cpu0_L1D TOTAL     ACCESS:    6855751  HIT:    4769060  MISS:    2086691
cpu0_L1D LOAD      ACCESS:    5228746  HIT:    3154480  MISS:    2074266
cpu0_L1D RFO       ACCESS:    1299907  HIT:    1288875  MISS:      11032
cpu0_L1D PREFETCH  ACCESS:          0  HIT:          0  MISS:          0
cpu0_L1D WRITEBACK ACCESS:          0  HIT:          0  MISS:          0
cpu0_L1D TRANSLATION ACCESS:     327098  HIT:     325705  MISS:       1393
cpu0_L1D PREFETCH  REQUESTED:          0  ISSUED:          0  USEFUL:          0  USELESS:          0
cpu0_L1D AVERAGE MISS LATENCY: 204.72 cycles
cpu0_L2C TOTAL     ACCESS:    9780700  HIT:    5194235  MISS:    4586465
cpu0_L2C LOAD      ACCESS:    2074266  HIT:      49918  MISS:    2024348
cpu0_L2C RFO       ACCESS:      11032  HIT:         75  MISS:      10957
cpu0_L2C PREFETCH  ACCESS:    7045188  HIT:    4496983  MISS:    2548205
cpu0_L2C WRITEBACK ACCESS:     648821  HIT:     646082  MISS:       2739
cpu0_L2C TRANSLATION ACCESS:       1393  HIT:       1177  MISS:        216
cpu0_L2C PREFETCH  REQUESTED:    7829138  ISSUED:    7114939  USEFUL:    1490205  USELESS:    1056655
cpu0_L2C AVERAGE MISS LATENCY: 123.276 cycles
LLC TOTAL     ACCESS:    5242878  HIT:    3451220  MISS:    1791658
LLC LOAD      ACCESS:    2024348  HIT:     556662  MISS:    1467686
LLC RFO       ACCESS:      10957  HIT:        381  MISS:      10576
LLC PREFETCH  ACCESS:    2560290  HIT:    2246984  MISS:     313306
LLC WRITEBACK ACCESS:     647067  HIT:     647056  MISS:         11
LLC TRANSLATION ACCESS:        216  HIT:        137  MISS:         79
LLC PREFETCH  REQUESTED:          0  ISSUED:          0  USEFUL:          0  USELESS:          0
LLC AVERAGE MISS LATENCY: 262.829 cycles

DRAM Statistics
 CHANNEL 0
 RQ ROW_BUFFER_HIT:     154912  ROW_BUFFER_MISS:    1635981
 DBUS AVG_CONGESTED_CYCLE:    3.95672
 WQ ROW_BUFFER_HIT:       1241  ROW_BUFFER_MISS:     584281  FULL:          0


CPU 0 Branch Prediction Accuracy: 81.1279% MPKI: 35.6282 Average ROB Occupancy at Mispredict: 20.4984
Branch type MPKI
BRANCH_DIRECT_JUMP: 0
BRANCH_INDIRECT: 0
BRANCH_CONDITIONAL: 35.6282
BRANCH_DIRECT_CALL: 0
BRANCH_INDIRECT_CALL: 0
BRANCH_RETURN: 0

