
*** ChampSim Multicore Out-of-Order Simulator ***

Warmup Instructions: 25000000
Simulation Instructions: 25000000
Number of CPUs: 1
Off-chip DRAM Size: 4 GiB Channels: 1 Width: 64-bit Data Rate: 3200 MT/s

VirtualMemory physical capacity: 8588881920 num_ppages: 2096895
VirtualMemory page size: 4096 log2_page_size: 12

CPU 0 runs /home/vedant/Practicals/AdvanceCA/Assignments/Assignment2/traces/bc-0.trace.gz
CPU 0 Bimodal branch predictor
Basic BTB sets: 1024 ways: 8 indirect buffer size: 4096 RAS size: 64
cpu0_L2C Stream prefetcher
WARNING: The extended signature CACHE::prefetch_line(ip, base_addr, pf_addr, fill_this_level, prefetch_metadata) is deprecated.
WARNING: Use CACHE::prefetch_line(pf_addr, fill_this_level, prefetch_metadata) instead.
Heartbeat CPU 0 instructions: 10000002 cycles: 3204765 heartbeat IPC: 3.12035 cumulative IPC: 3.12035 (Simulation time: 0 hr 0 min 54 sec) 
Heartbeat CPU 0 instructions: 20000001 cycles: 5713716 heartbeat IPC: 3.98573 cumulative IPC: 3.50035 (Simulation time: 0 hr 1 min 33 sec) 

Warmup complete CPU 0 instructions: 25000003 cycles: 6965202 (Simulation time: 0 hr 1 min 54 sec) 

Heartbeat CPU 0 instructions: 30000001 cycles: 49497044 heartbeat IPC: 0.228397 cumulative IPC: 0.117559 (Simulation time: 0 hr 3 min 22 sec) 
Heartbeat CPU 0 instructions: 40000002 cycles: 136176076 heartbeat IPC: 0.115368 cumulative IPC: 0.116089 (Simulation time: 0 hr 5 min 45 sec) 
Heartbeat CPU 0 instructions: 50000002 cycles: 222922132 heartbeat IPC: 0.115279 cumulative IPC: 0.115764 (Simulation time: 0 hr 7 min 35 sec) 
Finished CPU 0 instructions: 25000004 cycles: 215956931 cumulative IPC: 0.115764 (Simulation time: 0 hr 7 min 35 sec) 

ChampSim completed all CPUs

Region of Interest Statistics

CPU 0 cumulative IPC: 0.115764 instructions: 25000004 cycles: 215956931
cpu0_DTLB TOTAL     ACCESS:    5784673  HIT:    5050891  MISS:     733782
cpu0_DTLB LOAD      ACCESS:    4557118  HIT:    4079156  MISS:     477962
cpu0_DTLB RFO       ACCESS:    1227555  HIT:     971735  MISS:     255820
cpu0_DTLB PREFETCH  ACCESS:          0  HIT:          0  MISS:          0
cpu0_DTLB WRITEBACK ACCESS:          0  HIT:          0  MISS:          0
cpu0_DTLB TRANSLATION ACCESS:          0  HIT:          0  MISS:          0
cpu0_DTLB PREFETCH  REQUESTED:          0  ISSUED:          0  USEFUL:          0  USELESS:          0
cpu0_DTLB AVERAGE MISS LATENCY: 13.8847 cycles
cpu0_ITLB TOTAL     ACCESS:    3107161  HIT:    3107161  MISS:          0
cpu0_ITLB LOAD      ACCESS:    3107161  HIT:    3107161  MISS:          0
cpu0_ITLB RFO       ACCESS:          0  HIT:          0  MISS:          0
cpu0_ITLB PREFETCH  ACCESS:          0  HIT:          0  MISS:          0
cpu0_ITLB WRITEBACK ACCESS:          0  HIT:          0  MISS:          0
cpu0_ITLB TRANSLATION ACCESS:          0  HIT:          0  MISS:          0
cpu0_ITLB PREFETCH  REQUESTED:          0  ISSUED:          0  USEFUL:          0  USELESS:          0
cpu0_ITLB AVERAGE MISS LATENCY: -nan cycles
cpu0_L1I TOTAL     ACCESS:         86  HIT:         86  MISS:          0
cpu0_L1I LOAD      ACCESS:         86  HIT:         86  MISS:          0
cpu0_L1I RFO       ACCESS:          0  HIT:          0  MISS:          0
cpu0_L1I PREFETCH  ACCESS:          0  HIT:          0  MISS:          0
cpu0_L1I WRITEBACK ACCESS:          0  HIT:          0  MISS:          0
cpu0_L1I TRANSLATION ACCESS:          0  HIT:          0  MISS:          0
cpu0_L1I PREFETCH  REQUESTED:          0  ISSUED:          0  USEFUL:          0  USELESS:          0
cpu0_L1I AVERAGE MISS LATENCY: -nan cycles
cpu0_STLB TOTAL     ACCESS:     733782  HIT:     397124  MISS:     336658
cpu0_STLB LOAD      ACCESS:     477962  HIT:     310194  MISS:     167768
cpu0_STLB RFO       ACCESS:     255820  HIT:      86930  MISS:     168890
cpu0_STLB PREFETCH  ACCESS:          0  HIT:          0  MISS:          0
cpu0_STLB WRITEBACK ACCESS:          0  HIT:          0  MISS:          0
cpu0_STLB TRANSLATION ACCESS:          0  HIT:          0  MISS:          0
cpu0_STLB PREFETCH  REQUESTED:          0  ISSUED:          0  USEFUL:          0  USELESS:          0
cpu0_STLB AVERAGE MISS LATENCY: 10.4615 cycles
cpu0_L1D TOTAL     ACCESS:    6856622  HIT:    4769930  MISS:    2086692
cpu0_L1D LOAD      ACCESS:    5229569  HIT:    3155302  MISS:    2074267
cpu0_L1D RFO       ACCESS:    1299958  HIT:    1288926  MISS:      11032
cpu0_L1D PREFETCH  ACCESS:          0  HIT:          0  MISS:          0
cpu0_L1D WRITEBACK ACCESS:          0  HIT:          0  MISS:          0
cpu0_L1D TRANSLATION ACCESS:     327095  HIT:     325702  MISS:       1393
cpu0_L1D PREFETCH  REQUESTED:          0  ISSUED:          0  USEFUL:          0  USELESS:          0
cpu0_L1D AVERAGE MISS LATENCY: 206.447 cycles
cpu0_L2C TOTAL     ACCESS:   10996760  HIT:    5914431  MISS:    5082329
cpu0_L2C LOAD      ACCESS:    2074267  HIT:      39352  MISS:    2034915
cpu0_L2C RFO       ACCESS:      11032  HIT:         79  MISS:      10953
cpu0_L2C PREFETCH  ACCESS:    8261247  HIT:    5229679  MISS:    3031568
cpu0_L2C WRITEBACK ACCESS:     648821  HIT:     644218  MISS:       4603
cpu0_L2C TRANSLATION ACCESS:       1393  HIT:       1103  MISS:        290
cpu0_L2C PREFETCH  REQUESTED:    9133535  ISSUED:    8349356  USEFUL:    1746054  USELESS:    1283565
cpu0_L2C AVERAGE MISS LATENCY: 110.699 cycles
LLC TOTAL     ACCESS:    5746495  HIT:    3998004  MISS:    1748491
LLC LOAD      ACCESS:    2034915  HIT:     550449  MISS:    1484466
LLC RFO       ACCESS:      10953  HIT:        372  MISS:      10581
LLC PREFETCH  ACCESS:    3052579  HIT:    2799230  MISS:     253349
LLC WRITEBACK ACCESS:     647758  HIT:     647748  MISS:         10
LLC TRANSLATION ACCESS:        290  HIT:        205  MISS:         85
LLC PREFETCH  REQUESTED:          0  ISSUED:          0  USEFUL:          0  USELESS:          0
LLC AVERAGE MISS LATENCY: 262.124 cycles

DRAM Statistics
 CHANNEL 0
 RQ ROW_BUFFER_HIT:     183002  ROW_BUFFER_MISS:    1564779
 DBUS AVG_CONGESTED_CYCLE:    3.95595
 WQ ROW_BUFFER_HIT:       1429  ROW_BUFFER_MISS:     586591  FULL:          0


CPU 0 Branch Prediction Accuracy: 81.1279% MPKI: 35.6282 Average ROB Occupancy at Mispredict: 20.3446
Branch type MPKI
BRANCH_DIRECT_JUMP: 0
BRANCH_INDIRECT: 0
BRANCH_CONDITIONAL: 35.6282
BRANCH_DIRECT_CALL: 0
BRANCH_INDIRECT_CALL: 0
BRANCH_RETURN: 0

