
*** ChampSim Multicore Out-of-Order Simulator ***

Warmup Instructions: 25000000
Simulation Instructions: 25000000
Number of CPUs: 1
Off-chip DRAM Size: 4 GiB Channels: 1 Width: 64-bit Data Rate: 3200 MT/s

VirtualMemory physical capacity: 8588881920 num_ppages: 2096895
VirtualMemory page size: 4096 log2_page_size: 12

CPU 0 runs /home/yogo/Documents/clonos/pa2-race-of-prefetchers-template/traces/bc-0.trace.gz
CPU 0 Bimodal branch predictor
Basic BTB sets: 1024 ways: 8 indirect buffer size: 4096 RAS size: 64
cpu0_L2C Hybrid Stream + IP-based stride prefetcher
WARNING: The extended signature CACHE::prefetch_line(ip, base_addr, pf_addr, fill_this_level, prefetch_metadata) is deprecated.
WARNING: Use CACHE::prefetch_line(pf_addr, fill_this_level, prefetch_metadata) instead.
Heartbeat CPU 0 instructions: 10000002 cycles: 3204339 heartbeat IPC: 3.12077 cumulative IPC: 3.12077 (Simulation time: 0 hr 0 min 51 sec) 
Heartbeat CPU 0 instructions: 20000000 cycles: 5713243 heartbeat IPC: 3.9858 cumulative IPC: 3.50064 (Simulation time: 0 hr 1 min 28 sec) 

Warmup complete CPU 0 instructions: 25000001 cycles: 6964689 (Simulation time: 0 hr 1 min 46 sec) 

Heartbeat CPU 0 instructions: 30000001 cycles: 48814963 heartbeat IPC: 0.232009 cumulative IPC: 0.119474 (Simulation time: 0 hr 2 min 44 sec) 
Heartbeat CPU 0 instructions: 40000002 cycles: 134455722 heartbeat IPC: 0.116767 cumulative IPC: 0.117655 (Simulation time: 0 hr 4 min 40 sec) 
Heartbeat CPU 0 instructions: 50000002 cycles: 220128879 heartbeat IPC: 0.116723 cumulative IPC: 0.11728 (Simulation time: 0 hr 6 min 32 sec) 
Finished CPU 0 instructions: 25000001 cycles: 213164190 cumulative IPC: 0.11728 (Simulation time: 0 hr 6 min 32 sec) 

ChampSim completed all CPUs

Region of Interest Statistics

CPU 0 cumulative IPC: 0.11728 instructions: 25000001 cycles: 213164190
cpu0_DTLB TOTAL     ACCESS:    5784095  HIT:    5050313  MISS:     733782
cpu0_DTLB LOAD      ACCESS:    4556514  HIT:    4078561  MISS:     477953
cpu0_DTLB RFO       ACCESS:    1227581  HIT:     971752  MISS:     255829
cpu0_DTLB PREFETCH  ACCESS:          0  HIT:          0  MISS:          0
cpu0_DTLB WRITEBACK ACCESS:          0  HIT:          0  MISS:          0
cpu0_DTLB TRANSLATION ACCESS:          0  HIT:          0  MISS:          0
cpu0_DTLB PREFETCH  REQUESTED:          0  ISSUED:          0  USEFUL:          0  USELESS:          0
cpu0_DTLB AVERAGE MISS LATENCY: 13.8823 cycles
cpu0_ITLB TOTAL     ACCESS:    3107161  HIT:    3107161  MISS:          0
cpu0_ITLB LOAD      ACCESS:    3107161  HIT:    3107161  MISS:          0
cpu0_ITLB RFO       ACCESS:          0  HIT:          0  MISS:          0
cpu0_ITLB PREFETCH  ACCESS:          0  HIT:          0  MISS:          0
cpu0_ITLB WRITEBACK ACCESS:          0  HIT:          0  MISS:          0
cpu0_ITLB TRANSLATION ACCESS:          0  HIT:          0  MISS:          0
cpu0_ITLB PREFETCH  REQUESTED:          0  ISSUED:          0  USEFUL:          0  USELESS:          0
cpu0_ITLB AVERAGE MISS LATENCY: -nan cycles
cpu0_L1I TOTAL     ACCESS:         86  HIT:         86  MISS:          0
cpu0_L1I LOAD      ACCESS:         86  HIT:         86  MISS:          0
cpu0_L1I RFO       ACCESS:          0  HIT:          0  MISS:          0
cpu0_L1I PREFETCH  ACCESS:          0  HIT:          0  MISS:          0
cpu0_L1I WRITEBACK ACCESS:          0  HIT:          0  MISS:          0
cpu0_L1I TRANSLATION ACCESS:          0  HIT:          0  MISS:          0
cpu0_L1I PREFETCH  REQUESTED:          0  ISSUED:          0  USEFUL:          0  USELESS:          0
cpu0_L1I AVERAGE MISS LATENCY: -nan cycles
cpu0_STLB TOTAL     ACCESS:     733782  HIT:     397124  MISS:     336658
cpu0_STLB LOAD      ACCESS:     477953  HIT:     310186  MISS:     167767
cpu0_STLB RFO       ACCESS:     255829  HIT:      86938  MISS:     168891
cpu0_STLB PREFETCH  ACCESS:          0  HIT:          0  MISS:          0
cpu0_STLB WRITEBACK ACCESS:          0  HIT:          0  MISS:          0
cpu0_STLB TRANSLATION ACCESS:          0  HIT:          0  MISS:          0
cpu0_STLB PREFETCH  REQUESTED:          0  ISSUED:          0  USEFUL:          0  USELESS:          0
cpu0_STLB AVERAGE MISS LATENCY: 10.4564 cycles
cpu0_L1D TOTAL     ACCESS:    6855667  HIT:    4768972  MISS:    2086695
cpu0_L1D LOAD      ACCESS:    5228689  HIT:    3154419  MISS:    2074270
cpu0_L1D RFO       ACCESS:    1299884  HIT:    1288852  MISS:      11032
cpu0_L1D PREFETCH  ACCESS:          0  HIT:          0  MISS:          0
cpu0_L1D WRITEBACK ACCESS:          0  HIT:          0  MISS:          0
cpu0_L1D TRANSLATION ACCESS:     327094  HIT:     325701  MISS:       1393
cpu0_L1D PREFETCH  REQUESTED:          0  ISSUED:          0  USEFUL:          0  USELESS:          0
cpu0_L1D AVERAGE MISS LATENCY: 203.679 cycles
cpu0_L2C TOTAL     ACCESS:    9785475  HIT:    5218577  MISS:    4566898
cpu0_L2C LOAD      ACCESS:    2074270  HIT:      50435  MISS:    2023835
cpu0_L2C RFO       ACCESS:      11032  HIT:         78  MISS:      10954
cpu0_L2C PREFETCH  ACCESS:    7049958  HIT:    4520411  MISS:    2529547
cpu0_L2C WRITEBACK ACCESS:     648822  HIT:     646455  MISS:       2367
cpu0_L2C TRANSLATION ACCESS:       1393  HIT:       1198  MISS:        195
cpu0_L2C PREFETCH  REQUESTED:    7829240  ISSUED:    7114920  USEFUL:    1489642  USELESS:    1038512
cpu0_L2C AVERAGE MISS LATENCY: 122.044 cycles
LLC TOTAL     ACCESS:    5223695  HIT:    3440904  MISS:    1782791
LLC LOAD      ACCESS:    2023835  HIT:     556594  MISS:    1467241
LLC RFO       ACCESS:      10954  HIT:        376  MISS:      10578
LLC PREFETCH  ACCESS:    2541534  HIT:    2236653  MISS:     304881
LLC WRITEBACK ACCESS:     647177  HIT:     647166  MISS:         11
LLC TRANSLATION ACCESS:        195  HIT:        115  MISS:         80
LLC PREFETCH  REQUESTED:          0  ISSUED:          0  USEFUL:          0  USELESS:          0
LLC AVERAGE MISS LATENCY: 259.82 cycles

DRAM Statistics
 CHANNEL 0
 RQ ROW_BUFFER_HIT:      88632  ROW_BUFFER_MISS:    1693441
 DBUS AVG_CONGESTED_CYCLE:    3.95834
 WQ ROW_BUFFER_HIT:       1093  ROW_BUFFER_MISS:     584552  FULL:          0


CPU 0 Branch Prediction Accuracy: 81.1279% MPKI: 35.6282 Average ROB Occupancy at Mispredict: 20.5184
Branch type MPKI
BRANCH_DIRECT_JUMP: 0
BRANCH_INDIRECT: 0
BRANCH_CONDITIONAL: 35.6282
BRANCH_DIRECT_CALL: 0
BRANCH_INDIRECT_CALL: 0
BRANCH_RETURN: 0

