
*** ChampSim Multicore Out-of-Order Simulator ***

Warmup Instructions: 25000000
Simulation Instructions: 25000000
Number of CPUs: 1
Off-chip DRAM Size: 4 GiB Channels: 1 Width: 64-bit Data Rate: 3200 MT/s

VirtualMemory physical capacity: 8588881920 num_ppages: 2096895
VirtualMemory page size: 4096 log2_page_size: 12

CPU 0 runs /home/ravi/ACA/pa2-race-of-prefetchers-random/Traces/bc-0.trace.gz
CPU 0 Bimodal branch predictor
Basic BTB sets: 1024 ways: 8 indirect buffer size: 4096 RAS size: 64
cpu0_L2C IP-based stride prefetcher
WARNING: The extended signature CACHE::prefetch_line(ip, base_addr, pf_addr, fill_this_level, prefetch_metadata) is deprecated.
WARNING: Use CACHE::prefetch_line(pf_addr, fill_this_level, prefetch_metadata) instead.
Heartbeat CPU 0 instructions: 10000002 cycles: 3203425 heartbeat IPC: 3.12166 cumulative IPC: 3.12166 (Simulation time: 0 hr 1 min 3 sec) 
Heartbeat CPU 0 instructions: 20000003 cycles: 5712250 heartbeat IPC: 3.98593 cumulative IPC: 3.50125 (Simulation time: 0 hr 1 min 54 sec) 

Warmup complete CPU 0 instructions: 25000001 cycles: 6963681 (Simulation time: 0 hr 2 min 14 sec) 

Heartbeat CPU 0 instructions: 30000001 cycles: 45329674 heartbeat IPC: 0.252414 cumulative IPC: 0.130324 (Simulation time: 0 hr 3 min 52 sec) 
Heartbeat CPU 0 instructions: 40000002 cycles: 124980289 heartbeat IPC: 0.125548 cumulative IPC: 0.127101 (Simulation time: 0 hr 6 min 6 sec) 
Heartbeat CPU 0 instructions: 50000002 cycles: 204834566 heartbeat IPC: 0.125228 cumulative IPC: 0.126345 (Simulation time: 0 hr 7 min 57 sec) 
Finished CPU 0 instructions: 25000001 cycles: 197870885 cumulative IPC: 0.126345 (Simulation time: 0 hr 7 min 57 sec) 

ChampSim completed all CPUs

Region of Interest Statistics

CPU 0 cumulative IPC: 0.126345 instructions: 25000001 cycles: 197870885
cpu0_DTLB TOTAL     ACCESS:    5782719  HIT:    5048937  MISS:     733782
cpu0_DTLB LOAD      ACCESS:    4555132  HIT:    4077152  MISS:     477980
cpu0_DTLB RFO       ACCESS:    1227587  HIT:     971785  MISS:     255802
cpu0_DTLB PREFETCH  ACCESS:          0  HIT:          0  MISS:          0
cpu0_DTLB WRITEBACK ACCESS:          0  HIT:          0  MISS:          0
cpu0_DTLB TRANSLATION ACCESS:          0  HIT:          0  MISS:          0
cpu0_DTLB PREFETCH  REQUESTED:          0  ISSUED:          0  USEFUL:          0  USELESS:          0
cpu0_DTLB AVERAGE MISS LATENCY: 13.8575 cycles
cpu0_ITLB TOTAL     ACCESS:    3107161  HIT:    3107161  MISS:          0
cpu0_ITLB LOAD      ACCESS:    3107161  HIT:    3107161  MISS:          0
cpu0_ITLB RFO       ACCESS:          0  HIT:          0  MISS:          0
cpu0_ITLB PREFETCH  ACCESS:          0  HIT:          0  MISS:          0
cpu0_ITLB WRITEBACK ACCESS:          0  HIT:          0  MISS:          0
cpu0_ITLB TRANSLATION ACCESS:          0  HIT:          0  MISS:          0
cpu0_ITLB PREFETCH  REQUESTED:          0  ISSUED:          0  USEFUL:          0  USELESS:          0
cpu0_ITLB AVERAGE MISS LATENCY: -nan cycles
cpu0_L1I TOTAL     ACCESS:         86  HIT:         86  MISS:          0
cpu0_L1I LOAD      ACCESS:         86  HIT:         86  MISS:          0
cpu0_L1I RFO       ACCESS:          0  HIT:          0  MISS:          0
cpu0_L1I PREFETCH  ACCESS:          0  HIT:          0  MISS:          0
cpu0_L1I WRITEBACK ACCESS:          0  HIT:          0  MISS:          0
cpu0_L1I TRANSLATION ACCESS:          0  HIT:          0  MISS:          0
cpu0_L1I PREFETCH  REQUESTED:          0  ISSUED:          0  USEFUL:          0  USELESS:          0
cpu0_L1I AVERAGE MISS LATENCY: -nan cycles
cpu0_STLB TOTAL     ACCESS:     733782  HIT:     397124  MISS:     336658
cpu0_STLB LOAD      ACCESS:     477980  HIT:     310197  MISS:     167783
cpu0_STLB RFO       ACCESS:     255802  HIT:      86927  MISS:     168875
cpu0_STLB PREFETCH  ACCESS:          0  HIT:          0  MISS:          0
cpu0_STLB WRITEBACK ACCESS:          0  HIT:          0  MISS:          0
cpu0_STLB TRANSLATION ACCESS:          0  HIT:          0  MISS:          0
cpu0_STLB PREFETCH  REQUESTED:          0  ISSUED:          0  USEFUL:          0  USELESS:          0
cpu0_STLB AVERAGE MISS LATENCY: 10.4023 cycles
cpu0_L1D TOTAL     ACCESS:    6851047  HIT:    4764350  MISS:    2086697
cpu0_L1D LOAD      ACCESS:    5224521  HIT:    3150250  MISS:    2074271
cpu0_L1D RFO       ACCESS:    1299437  HIT:    1288405  MISS:      11032
cpu0_L1D PREFETCH  ACCESS:          0  HIT:          0  MISS:          0
cpu0_L1D WRITEBACK ACCESS:          0  HIT:          0  MISS:          0
cpu0_L1D TRANSLATION ACCESS:     327089  HIT:     325695  MISS:       1394
cpu0_L1D PREFETCH  REQUESTED:          0  ISSUED:          0  USEFUL:          0  USELESS:          0
cpu0_L1D AVERAGE MISS LATENCY: 182.784 cycles
cpu0_L2C TOTAL     ACCESS:    4057410  HIT:    1829238  MISS:    2228172
cpu0_L2C LOAD      ACCESS:    2074271  HIT:     205869  MISS:    1868402
cpu0_L2C RFO       ACCESS:      11032  HIT:        107  MISS:      10925
cpu0_L2C PREFETCH  ACCESS:    1321891  HIT:     973112  MISS:     348779
cpu0_L2C WRITEBACK ACCESS:     648822  HIT:     648803  MISS:         19
cpu0_L2C TRANSLATION ACCESS:       1394  HIT:       1347  MISS:         47
cpu0_L2C PREFETCH  REQUESTED:    1380558  ISSUED:    1353516  USEFUL:      97064  USELESS:     252651
cpu0_L2C AVERAGE MISS LATENCY: 216.272 cycles
LLC TOTAL     ACCESS:    2865695  HIT:    1227848  MISS:    1637847
LLC LOAD      ACCESS:    1868402  HIT:     553848  MISS:    1314554
LLC RFO       ACCESS:      10925  HIT:        448  MISS:      10477
LLC PREFETCH  ACCESS:     350784  HIT:      38071  MISS:     312713
LLC WRITEBACK ACCESS:     635537  HIT:     635470  MISS:         67
LLC TRANSLATION ACCESS:         47  HIT:         11  MISS:         36
LLC PREFETCH  REQUESTED:          0  ISSUED:          0  USEFUL:          0  USELESS:          0
LLC AVERAGE MISS LATENCY: 266.862 cycles

DRAM Statistics
 CHANNEL 0
 RQ ROW_BUFFER_HIT:     147071  ROW_BUFFER_MISS:    1490067
 DBUS AVG_CONGESTED_CYCLE:    3.95897
 WQ ROW_BUFFER_HIT:       1257  ROW_BUFFER_MISS:     556793  FULL:          0


CPU 0 Branch Prediction Accuracy: 81.1279% MPKI: 35.6282 Average ROB Occupancy at Mispredict: 21.7002
Branch type MPKI
BRANCH_DIRECT_JUMP: 0
BRANCH_INDIRECT: 0
BRANCH_CONDITIONAL: 35.6282
BRANCH_DIRECT_CALL: 0
BRANCH_INDIRECT_CALL: 0
BRANCH_RETURN: 0

