
*** ChampSim Multicore Out-of-Order Simulator ***

Warmup Instructions: 25000000
Simulation Instructions: 25000000
Number of CPUs: 1
Off-chip DRAM Size: 4 GiB Channels: 1 Width: 64-bit Data Rate: 3200 MT/s

VirtualMemory physical capacity: 8588881920 num_ppages: 2096895
VirtualMemory page size: 4096 log2_page_size: 12

CPU 0 runs /home/yogo/Documents/clonos/pa2-race-of-prefetchers-template/traces/bc-0.trace.gz
CPU 0 Bimodal branch predictor
Basic BTB sets: 1024 ways: 8 indirect buffer size: 4096 RAS size: 64
cpu0_L2C Hybrid Stream + IP-based stride prefetcher
WARNING: The extended signature CACHE::prefetch_line(ip, base_addr, pf_addr, fill_this_level, prefetch_metadata) is deprecated.
WARNING: Use CACHE::prefetch_line(pf_addr, fill_this_level, prefetch_metadata) instead.
Heartbeat CPU 0 instructions: 10000002 cycles: 3203954 heartbeat IPC: 3.12114 cumulative IPC: 3.12114 (Simulation time: 0 hr 1 min 26 sec) 
Heartbeat CPU 0 instructions: 20000001 cycles: 5712825 heartbeat IPC: 3.98586 cumulative IPC: 3.5009 (Simulation time: 0 hr 2 min 4 sec) 

Warmup complete CPU 0 instructions: 25000004 cycles: 6964272 (Simulation time: 0 hr 2 min 24 sec) 

Heartbeat CPU 0 instructions: 30000001 cycles: 47567266 heartbeat IPC: 0.238923 cumulative IPC: 0.123144 (Simulation time: 0 hr 3 min 20 sec) 
Heartbeat CPU 0 instructions: 40000002 cycles: 130726734 heartbeat IPC: 0.120251 cumulative IPC: 0.1212 (Simulation time: 0 hr 5 min 13 sec) 
Heartbeat CPU 0 instructions: 50000002 cycles: 213856464 heartbeat IPC: 0.120294 cumulative IPC: 0.120836 (Simulation time: 0 hr 7 min 2 sec) 
Finished CPU 0 instructions: 25000003 cycles: 206892193 cumulative IPC: 0.120836 (Simulation time: 0 hr 7 min 2 sec) 

ChampSim completed all CPUs

Region of Interest Statistics

CPU 0 cumulative IPC: 0.120836 instructions: 25000003 cycles: 206892193
cpu0_DTLB TOTAL     ACCESS:    5783724  HIT:    5049942  MISS:     733782
cpu0_DTLB LOAD      ACCESS:    4556195  HIT:    4078227  MISS:     477968
cpu0_DTLB RFO       ACCESS:    1227529  HIT:     971715  MISS:     255814
cpu0_DTLB PREFETCH  ACCESS:          0  HIT:          0  MISS:          0
cpu0_DTLB WRITEBACK ACCESS:          0  HIT:          0  MISS:          0
cpu0_DTLB TRANSLATION ACCESS:          0  HIT:          0  MISS:          0
cpu0_DTLB PREFETCH  REQUESTED:          0  ISSUED:          0  USEFUL:          0  USELESS:          0
cpu0_DTLB AVERAGE MISS LATENCY: 13.8622 cycles
cpu0_ITLB TOTAL     ACCESS:    3107161  HIT:    3107161  MISS:          0
cpu0_ITLB LOAD      ACCESS:    3107161  HIT:    3107161  MISS:          0
cpu0_ITLB RFO       ACCESS:          0  HIT:          0  MISS:          0
cpu0_ITLB PREFETCH  ACCESS:          0  HIT:          0  MISS:          0
cpu0_ITLB WRITEBACK ACCESS:          0  HIT:          0  MISS:          0
cpu0_ITLB TRANSLATION ACCESS:          0  HIT:          0  MISS:          0
cpu0_ITLB PREFETCH  REQUESTED:          0  ISSUED:          0  USEFUL:          0  USELESS:          0
cpu0_ITLB AVERAGE MISS LATENCY: -nan cycles
cpu0_L1I TOTAL     ACCESS:         86  HIT:         86  MISS:          0
cpu0_L1I LOAD      ACCESS:         86  HIT:         86  MISS:          0
cpu0_L1I RFO       ACCESS:          0  HIT:          0  MISS:          0
cpu0_L1I PREFETCH  ACCESS:          0  HIT:          0  MISS:          0
cpu0_L1I WRITEBACK ACCESS:          0  HIT:          0  MISS:          0
cpu0_L1I TRANSLATION ACCESS:          0  HIT:          0  MISS:          0
cpu0_L1I PREFETCH  REQUESTED:          0  ISSUED:          0  USEFUL:          0  USELESS:          0
cpu0_L1I AVERAGE MISS LATENCY: -nan cycles
cpu0_STLB TOTAL     ACCESS:     733782  HIT:     397124  MISS:     336658
cpu0_STLB LOAD      ACCESS:     477968  HIT:     310193  MISS:     167775
cpu0_STLB RFO       ACCESS:     255814  HIT:      86931  MISS:     168883
cpu0_STLB PREFETCH  ACCESS:          0  HIT:          0  MISS:          0
cpu0_STLB WRITEBACK ACCESS:          0  HIT:          0  MISS:          0
cpu0_STLB TRANSLATION ACCESS:          0  HIT:          0  MISS:          0
cpu0_STLB PREFETCH  REQUESTED:          0  ISSUED:          0  USEFUL:          0  USELESS:          0
cpu0_STLB AVERAGE MISS LATENCY: 10.4125 cycles
cpu0_L1D TOTAL     ACCESS:    6854432  HIT:    4767736  MISS:    2086696
cpu0_L1D LOAD      ACCESS:    5227592  HIT:    3153322  MISS:    2074270
cpu0_L1D RFO       ACCESS:    1299751  HIT:    1288719  MISS:      11032
cpu0_L1D PREFETCH  ACCESS:          0  HIT:          0  MISS:          0
cpu0_L1D WRITEBACK ACCESS:          0  HIT:          0  MISS:          0
cpu0_L1D TRANSLATION ACCESS:     327089  HIT:     325695  MISS:       1394
cpu0_L1D PREFETCH  REQUESTED:          0  ISSUED:          0  USEFUL:          0  USELESS:          0
cpu0_L1D AVERAGE MISS LATENCY: 195.234 cycles
cpu0_L2C TOTAL     ACCESS:    8531739  HIT:    4628421  MISS:    3903318
cpu0_L2C LOAD      ACCESS:    2074270  HIT:      67583  MISS:    2006687
cpu0_L2C RFO       ACCESS:      11032  HIT:         86  MISS:      10946
cpu0_L2C PREFETCH  ACCESS:    5796221  HIT:    3911711  MISS:    1884510
cpu0_L2C WRITEBACK ACCESS:     648822  HIT:     647774  MISS:       1048
cpu0_L2C TRANSLATION ACCESS:       1394  HIT:       1267  MISS:        127
cpu0_L2C PREFETCH  REQUESTED:    6503752  ISSUED:    5835794  USEFUL:    1173761  USELESS:     709744
cpu0_L2C AVERAGE MISS LATENCY: 126.129 cycles
LLC TOTAL     ACCESS:    4553489  HIT:    2915264  MISS:    1638225
LLC LOAD      ACCESS:    2006687  HIT:     592234  MISS:    1414453
LLC RFO       ACCESS:      10946  HIT:        404  MISS:      10542
LLC PREFETCH  ACCESS:    1889579  HIT:    1676440  MISS:     213139
LLC WRITEBACK ACCESS:     646150  HIT:     646139  MISS:         11
LLC TRANSLATION ACCESS:        127  HIT:         47  MISS:         80
LLC PREFETCH  REQUESTED:          0  ISSUED:          0  USEFUL:          0  USELESS:          0
LLC AVERAGE MISS LATENCY: 250.961 cycles

DRAM Statistics
 CHANNEL 0
 RQ ROW_BUFFER_HIT:      77498  ROW_BUFFER_MISS:    1560014
 DBUS AVG_CONGESTED_CYCLE:    3.95771
 WQ ROW_BUFFER_HIT:       1056  ROW_BUFFER_MISS:     575631  FULL:          0


CPU 0 Branch Prediction Accuracy: 81.1279% MPKI: 35.6282 Average ROB Occupancy at Mispredict: 20.8498
Branch type MPKI
BRANCH_DIRECT_JUMP: 0
BRANCH_INDIRECT: 0
BRANCH_CONDITIONAL: 35.6282
BRANCH_DIRECT_CALL: 0
BRANCH_INDIRECT_CALL: 0
BRANCH_RETURN: 0

