
*** ChampSim Multicore Out-of-Order Simulator ***

Warmup Instructions: 25000000
Simulation Instructions: 25000000
Number of CPUs: 1
Off-chip DRAM Size: 4 GiB Channels: 1 Width: 64-bit Data Rate: 3200 MT/s

VirtualMemory physical capacity: 8588881920 num_ppages: 2096895
VirtualMemory page size: 4096 log2_page_size: 12

CPU 0 runs /home/vedant/Practicals/AdvanceCA/Assignments/Assignment2/traces/bc-0.trace.gz
CPU 0 Bimodal branch predictor
Basic BTB sets: 1024 ways: 8 indirect buffer size: 4096 RAS size: 64
cpu0_L2C Stream prefetcher
WARNING: The extended signature CACHE::prefetch_line(ip, base_addr, pf_addr, fill_this_level, prefetch_metadata) is deprecated.
WARNING: Use CACHE::prefetch_line(pf_addr, fill_this_level, prefetch_metadata) instead.
Heartbeat CPU 0 instructions: 10000002 cycles: 3203523 heartbeat IPC: 3.12156 cumulative IPC: 3.12156 (Simulation time: 0 hr 0 min 54 sec) 
Heartbeat CPU 0 instructions: 20000001 cycles: 5712348 heartbeat IPC: 3.98593 cumulative IPC: 3.50119 (Simulation time: 0 hr 1 min 31 sec) 

Warmup complete CPU 0 instructions: 25000001 cycles: 6963779 (Simulation time: 0 hr 1 min 52 sec) 

Heartbeat CPU 0 instructions: 30000001 cycles: 44713401 heartbeat IPC: 0.256403 cumulative IPC: 0.132452 (Simulation time: 0 hr 2 min 50 sec) 
Heartbeat CPU 0 instructions: 40000002 cycles: 121995276 heartbeat IPC: 0.129396 cumulative IPC: 0.130399 (Simulation time: 0 hr 4 min 41 sec) 
Heartbeat CPU 0 instructions: 50000002 cycles: 199109599 heartbeat IPC: 0.129678 cumulative IPC: 0.13011 (Simulation time: 0 hr 6 min 21 sec) 
Finished CPU 0 instructions: 25000001 cycles: 192145820 cumulative IPC: 0.13011 (Simulation time: 0 hr 6 min 21 sec) 

ChampSim completed all CPUs

Region of Interest Statistics

CPU 0 cumulative IPC: 0.13011 instructions: 25000001 cycles: 192145820
cpu0_DTLB TOTAL     ACCESS:    5782802  HIT:    5049020  MISS:     733782
cpu0_DTLB LOAD      ACCESS:    4555298  HIT:    4077307  MISS:     477991
cpu0_DTLB RFO       ACCESS:    1227504  HIT:     971713  MISS:     255791
cpu0_DTLB PREFETCH  ACCESS:          0  HIT:          0  MISS:          0
cpu0_DTLB WRITEBACK ACCESS:          0  HIT:          0  MISS:          0
cpu0_DTLB TRANSLATION ACCESS:          0  HIT:          0  MISS:          0
cpu0_DTLB PREFETCH  REQUESTED:          0  ISSUED:          0  USEFUL:          0  USELESS:          0
cpu0_DTLB AVERAGE MISS LATENCY: 13.8819 cycles
cpu0_ITLB TOTAL     ACCESS:    3107161  HIT:    3107161  MISS:          0
cpu0_ITLB LOAD      ACCESS:    3107161  HIT:    3107161  MISS:          0
cpu0_ITLB RFO       ACCESS:          0  HIT:          0  MISS:          0
cpu0_ITLB PREFETCH  ACCESS:          0  HIT:          0  MISS:          0
cpu0_ITLB WRITEBACK ACCESS:          0  HIT:          0  MISS:          0
cpu0_ITLB TRANSLATION ACCESS:          0  HIT:          0  MISS:          0
cpu0_ITLB PREFETCH  REQUESTED:          0  ISSUED:          0  USEFUL:          0  USELESS:          0
cpu0_ITLB AVERAGE MISS LATENCY: -nan cycles
cpu0_L1I TOTAL     ACCESS:         86  HIT:         86  MISS:          0
cpu0_L1I LOAD      ACCESS:         86  HIT:         86  MISS:          0
cpu0_L1I RFO       ACCESS:          0  HIT:          0  MISS:          0
cpu0_L1I PREFETCH  ACCESS:          0  HIT:          0  MISS:          0
cpu0_L1I WRITEBACK ACCESS:          0  HIT:          0  MISS:          0
cpu0_L1I TRANSLATION ACCESS:          0  HIT:          0  MISS:          0
cpu0_L1I PREFETCH  REQUESTED:          0  ISSUED:          0  USEFUL:          0  USELESS:          0
cpu0_L1I AVERAGE MISS LATENCY: -nan cycles
cpu0_STLB TOTAL     ACCESS:     733782  HIT:     397124  MISS:     336658
cpu0_STLB LOAD      ACCESS:     477991  HIT:     310199  MISS:     167792
cpu0_STLB RFO       ACCESS:     255791  HIT:      86925  MISS:     168866
cpu0_STLB PREFETCH  ACCESS:          0  HIT:          0  MISS:          0
cpu0_STLB WRITEBACK ACCESS:          0  HIT:          0  MISS:          0
cpu0_STLB TRANSLATION ACCESS:          0  HIT:          0  MISS:          0
cpu0_STLB PREFETCH  REQUESTED:          0  ISSUED:          0  USEFUL:          0  USELESS:          0
cpu0_STLB AVERAGE MISS LATENCY: 10.4556 cycles
cpu0_L1D TOTAL     ACCESS:    6851106  HIT:    4764413  MISS:    2086693
cpu0_L1D LOAD      ACCESS:    5224714  HIT:    3150447  MISS:    2074267
cpu0_L1D RFO       ACCESS:    1299306  HIT:    1288274  MISS:      11032
cpu0_L1D PREFETCH  ACCESS:          0  HIT:          0  MISS:          0
cpu0_L1D WRITEBACK ACCESS:          0  HIT:          0  MISS:          0
cpu0_L1D TRANSLATION ACCESS:     327086  HIT:     325692  MISS:       1394
cpu0_L1D PREFETCH  REQUESTED:          0  ISSUED:          0  USEFUL:          0  USELESS:          0
cpu0_L1D AVERAGE MISS LATENCY: 175.828 cycles
cpu0_L2C TOTAL     ACCESS:    5772806  HIT:    3150170  MISS:    2622636
cpu0_L2C LOAD      ACCESS:    2074267  HIT:     127240  MISS:    1947027
cpu0_L2C RFO       ACCESS:      11032  HIT:        108  MISS:      10924
cpu0_L2C PREFETCH  ACCESS:    3037291  HIT:    2372797  MISS:     664494
cpu0_L2C WRITEBACK ACCESS:     648822  HIT:     648700  MISS:        122
cpu0_L2C TRANSLATION ACCESS:       1394  HIT:       1325  MISS:         69
cpu0_L2C PREFETCH  REQUESTED:    3632643  ISSUED:    3048162  USEFUL:     496866  USELESS:     167150
cpu0_L2C AVERAGE MISS LATENCY: 140.606 cycles
LLC TOTAL     ACCESS:    3264873  HIT:    1925982  MISS:    1338891
LLC LOAD      ACCESS:    1947027  HIT:     657578  MISS:    1289449
LLC RFO       ACCESS:      10924  HIT:        483  MISS:      10441
LLC PREFETCH  ACCESS:     664816  HIT:     625881  MISS:      38935
LLC WRITEBACK ACCESS:     642037  HIT:     642021  MISS:         16
LLC TRANSLATION ACCESS:         69  HIT:         19  MISS:         50
LLC PREFETCH  REQUESTED:          0  ISSUED:          0  USEFUL:          0  USELESS:          0
LLC AVERAGE MISS LATENCY: 234.318 cycles

DRAM Statistics
 CHANNEL 0
 RQ ROW_BUFFER_HIT:      60892  ROW_BUFFER_MISS:    1277305
 DBUS AVG_CONGESTED_CYCLE:    3.95711
 WQ ROW_BUFFER_HIT:       1070  ROW_BUFFER_MISS:     552246  FULL:          0


CPU 0 Branch Prediction Accuracy: 81.1279% MPKI: 35.6282 Average ROB Occupancy at Mispredict: 21.7311
Branch type MPKI
BRANCH_DIRECT_JUMP: 0
BRANCH_INDIRECT: 0
BRANCH_CONDITIONAL: 35.6282
BRANCH_DIRECT_CALL: 0
BRANCH_INDIRECT_CALL: 0
BRANCH_RETURN: 0

