
*** ChampSim Multicore Out-of-Order Simulator ***

Warmup Instructions: 25000000
Simulation Instructions: 25000000
Number of CPUs: 1
Off-chip DRAM Size: 4 GiB Channels: 1 Width: 64-bit Data Rate: 3200 MT/s

VirtualMemory physical capacity: 8588881920 num_ppages: 2096895
VirtualMemory page size: 4096 log2_page_size: 12

CPU 0 runs /home/vedant/Practicals/AdvanceCA/Assignments/Assignment2/traces/bc-0.trace.gz
CPU 0 Bimodal branch predictor
Basic BTB sets: 1024 ways: 8 indirect buffer size: 4096 RAS size: 64
cpu0_L2C Hybrid Stream + IP-based stride prefetcher
WARNING: The extended signature CACHE::prefetch_line(ip, base_addr, pf_addr, fill_this_level, prefetch_metadata) is deprecated.
WARNING: Use CACHE::prefetch_line(pf_addr, fill_this_level, prefetch_metadata) instead.
Heartbeat CPU 0 instructions: 10000002 cycles: 3203530 heartbeat IPC: 3.12156 cumulative IPC: 3.12156 (Simulation time: 0 hr 0 min 58 sec) 
Heartbeat CPU 0 instructions: 20000000 cycles: 5712357 heartbeat IPC: 3.98593 cumulative IPC: 3.50118 (Simulation time: 0 hr 1 min 39 sec) 

Warmup complete CPU 0 instructions: 25000003 cycles: 6963790 (Simulation time: 0 hr 2 min 0 sec) 

Heartbeat CPU 0 instructions: 30000001 cycles: 45312876 heartbeat IPC: 0.252522 cumulative IPC: 0.130381 (Simulation time: 0 hr 3 min 4 sec) 
Heartbeat CPU 0 instructions: 40000002 cycles: 124024582 heartbeat IPC: 0.127046 cumulative IPC: 0.128139 (Simulation time: 0 hr 5 min 12 sec) 
Heartbeat CPU 0 instructions: 50000002 cycles: 202600517 heartbeat IPC: 0.127265 cumulative IPC: 0.127788 (Simulation time: 0 hr 6 min 56 sec) 
Finished CPU 0 instructions: 25000004 cycles: 195636728 cumulative IPC: 0.127788 (Simulation time: 0 hr 6 min 56 sec) 

ChampSim completed all CPUs

Region of Interest Statistics

CPU 0 cumulative IPC: 0.127788 instructions: 25000004 cycles: 195636728
cpu0_DTLB TOTAL     ACCESS:    5782855  HIT:    5049073  MISS:     733782
cpu0_DTLB LOAD      ACCESS:    4555324  HIT:    4077340  MISS:     477984
cpu0_DTLB RFO       ACCESS:    1227531  HIT:     971733  MISS:     255798
cpu0_DTLB PREFETCH  ACCESS:          0  HIT:          0  MISS:          0
cpu0_DTLB WRITEBACK ACCESS:          0  HIT:          0  MISS:          0
cpu0_DTLB TRANSLATION ACCESS:          0  HIT:          0  MISS:          0
cpu0_DTLB PREFETCH  REQUESTED:          0  ISSUED:          0  USEFUL:          0  USELESS:          0
cpu0_DTLB AVERAGE MISS LATENCY: 13.8806 cycles
cpu0_ITLB TOTAL     ACCESS:    3107161  HIT:    3107161  MISS:          0
cpu0_ITLB LOAD      ACCESS:    3107161  HIT:    3107161  MISS:          0
cpu0_ITLB RFO       ACCESS:          0  HIT:          0  MISS:          0
cpu0_ITLB PREFETCH  ACCESS:          0  HIT:          0  MISS:          0
cpu0_ITLB WRITEBACK ACCESS:          0  HIT:          0  MISS:          0
cpu0_ITLB TRANSLATION ACCESS:          0  HIT:          0  MISS:          0
cpu0_ITLB PREFETCH  REQUESTED:          0  ISSUED:          0  USEFUL:          0  USELESS:          0
cpu0_ITLB AVERAGE MISS LATENCY: -nan cycles
cpu0_L1I TOTAL     ACCESS:         86  HIT:         86  MISS:          0
cpu0_L1I LOAD      ACCESS:         86  HIT:         86  MISS:          0
cpu0_L1I RFO       ACCESS:          0  HIT:          0  MISS:          0
cpu0_L1I PREFETCH  ACCESS:          0  HIT:          0  MISS:          0
cpu0_L1I WRITEBACK ACCESS:          0  HIT:          0  MISS:          0
cpu0_L1I TRANSLATION ACCESS:          0  HIT:          0  MISS:          0
cpu0_L1I PREFETCH  REQUESTED:          0  ISSUED:          0  USEFUL:          0  USELESS:          0
cpu0_L1I AVERAGE MISS LATENCY: -nan cycles
cpu0_STLB TOTAL     ACCESS:     733782  HIT:     397124  MISS:     336658
cpu0_STLB LOAD      ACCESS:     477984  HIT:     310196  MISS:     167788
cpu0_STLB RFO       ACCESS:     255798  HIT:      86928  MISS:     168870
cpu0_STLB PREFETCH  ACCESS:          0  HIT:          0  MISS:          0
cpu0_STLB WRITEBACK ACCESS:          0  HIT:          0  MISS:          0
cpu0_STLB TRANSLATION ACCESS:          0  HIT:          0  MISS:          0
cpu0_STLB PREFETCH  REQUESTED:          0  ISSUED:          0  USEFUL:          0  USELESS:          0
cpu0_STLB AVERAGE MISS LATENCY: 10.4526 cycles
cpu0_L1D TOTAL     ACCESS:    6851434  HIT:    4764739  MISS:    2086695
cpu0_L1D LOAD      ACCESS:    5224958  HIT:    3150689  MISS:    2074269
cpu0_L1D RFO       ACCESS:    1299391  HIT:    1288359  MISS:      11032
cpu0_L1D PREFETCH  ACCESS:          0  HIT:          0  MISS:          0
cpu0_L1D WRITEBACK ACCESS:          0  HIT:          0  MISS:          0
cpu0_L1D TRANSLATION ACCESS:     327085  HIT:     325691  MISS:       1394
cpu0_L1D PREFETCH  REQUESTED:          0  ISSUED:          0  USEFUL:          0  USELESS:          0
cpu0_L1D AVERAGE MISS LATENCY: 180.39 cycles
cpu0_L2C TOTAL     ACCESS:    5794259  HIT:    3087962  MISS:    2706297
cpu0_L2C LOAD      ACCESS:    2074269  HIT:     125269  MISS:    1949000
cpu0_L2C RFO       ACCESS:      11032  HIT:        105  MISS:      10927
cpu0_L2C PREFETCH  ACCESS:    3058742  HIT:    2312572  MISS:     746170
cpu0_L2C WRITEBACK ACCESS:     648822  HIT:     648686  MISS:        136
cpu0_L2C TRANSLATION ACCESS:       1394  HIT:       1330  MISS:         64
cpu0_L2C PREFETCH  REQUESTED:    3619804  ISSUED:    3074360  USEFUL:     519446  USELESS:     226503
cpu0_L2C AVERAGE MISS LATENCY: 148.464 cycles
LLC TOTAL     ACCESS:    3348827  HIT:    1911407  MISS:    1437420
LLC LOAD      ACCESS:    1949000  HIT:     634303  MISS:    1314697
LLC RFO       ACCESS:      10927  HIT:        451  MISS:      10476
LLC PREFETCH  ACCESS:     746706  HIT:     634524  MISS:     112182
LLC WRITEBACK ACCESS:     642130  HIT:     642113  MISS:         17
LLC TRANSLATION ACCESS:         64  HIT:         16  MISS:         48
LLC PREFETCH  REQUESTED:          0  ISSUED:          0  USEFUL:          0  USELESS:          0
LLC AVERAGE MISS LATENCY: 240.107 cycles

DRAM Statistics
 CHANNEL 0
 RQ ROW_BUFFER_HIT:      64667  ROW_BUFFER_MISS:    1372093
 DBUS AVG_CONGESTED_CYCLE:    3.95699
 WQ ROW_BUFFER_HIT:       1052  ROW_BUFFER_MISS:     557534  FULL:          0


CPU 0 Branch Prediction Accuracy: 81.1279% MPKI: 35.6282 Average ROB Occupancy at Mispredict: 21.59
Branch type MPKI
BRANCH_DIRECT_JUMP: 0
BRANCH_INDIRECT: 0
BRANCH_CONDITIONAL: 35.6282
BRANCH_DIRECT_CALL: 0
BRANCH_INDIRECT_CALL: 0
BRANCH_RETURN: 0

