
*** ChampSim Multicore Out-of-Order Simulator ***

Warmup Instructions: 25000000
Simulation Instructions: 25000000
Number of CPUs: 1
Off-chip DRAM Size: 4 GiB Channels: 1 Width: 64-bit Data Rate: 3200 MT/s

VirtualMemory physical capacity: 8588881920 num_ppages: 2096895
VirtualMemory page size: 4096 log2_page_size: 12

CPU 0 runs /home/vedant/Practicals/AdvanceCA/Assignments/Assignment2/traces/bc-0.trace.gz
CPU 0 Bimodal branch predictor
Basic BTB sets: 1024 ways: 8 indirect buffer size: 4096 RAS size: 64
cpu0_L2C IP-based stride prefetcher
WARNING: The extended signature CACHE::prefetch_line(ip, base_addr, pf_addr, fill_this_level, prefetch_metadata) is deprecated.
WARNING: Use CACHE::prefetch_line(pf_addr, fill_this_level, prefetch_metadata) instead.
Heartbeat CPU 0 instructions: 10000002 cycles: 3203429 heartbeat IPC: 3.12166 cumulative IPC: 3.12166 (Simulation time: 0 hr 0 min 47 sec) 
Heartbeat CPU 0 instructions: 20000001 cycles: 5712253 heartbeat IPC: 3.98593 cumulative IPC: 3.50125 (Simulation time: 0 hr 1 min 24 sec) 

Warmup complete CPU 0 instructions: 25000003 cycles: 6963684 (Simulation time: 0 hr 1 min 45 sec) 

Heartbeat CPU 0 instructions: 30000001 cycles: 43610816 heartbeat IPC: 0.263862 cumulative IPC: 0.136436 (Simulation time: 0 hr 2 min 44 sec) 
Heartbeat CPU 0 instructions: 40000002 cycles: 119096994 heartbeat IPC: 0.132475 cumulative IPC: 0.133769 (Simulation time: 0 hr 4 min 55 sec) 
Heartbeat CPU 0 instructions: 50000002 cycles: 194490177 heartbeat IPC: 0.132638 cumulative IPC: 0.133314 (Simulation time: 0 hr 6 min 39 sec) 
Finished CPU 0 instructions: 25000004 cycles: 187526494 cumulative IPC: 0.133315 (Simulation time: 0 hr 6 min 39 sec) 

ChampSim completed all CPUs

Region of Interest Statistics

CPU 0 cumulative IPC: 0.133315 instructions: 25000004 cycles: 187526494
cpu0_DTLB TOTAL     ACCESS:    5782025  HIT:    5048244  MISS:     733781
cpu0_DTLB LOAD      ACCESS:    4554479  HIT:    4076488  MISS:     477991
cpu0_DTLB RFO       ACCESS:    1227546  HIT:     971756  MISS:     255790
cpu0_DTLB PREFETCH  ACCESS:          0  HIT:          0  MISS:          0
cpu0_DTLB WRITEBACK ACCESS:          0  HIT:          0  MISS:          0
cpu0_DTLB TRANSLATION ACCESS:          0  HIT:          0  MISS:          0
cpu0_DTLB PREFETCH  REQUESTED:          0  ISSUED:          0  USEFUL:          0  USELESS:          0
cpu0_DTLB AVERAGE MISS LATENCY: 13.8784 cycles
cpu0_ITLB TOTAL     ACCESS:    3107161  HIT:    3107161  MISS:          0
cpu0_ITLB LOAD      ACCESS:    3107161  HIT:    3107161  MISS:          0
cpu0_ITLB RFO       ACCESS:          0  HIT:          0  MISS:          0
cpu0_ITLB PREFETCH  ACCESS:          0  HIT:          0  MISS:          0
cpu0_ITLB WRITEBACK ACCESS:          0  HIT:          0  MISS:          0
cpu0_ITLB TRANSLATION ACCESS:          0  HIT:          0  MISS:          0
cpu0_ITLB PREFETCH  REQUESTED:          0  ISSUED:          0  USEFUL:          0  USELESS:          0
cpu0_ITLB AVERAGE MISS LATENCY: -nan cycles
cpu0_L1I TOTAL     ACCESS:         86  HIT:         86  MISS:          0
cpu0_L1I LOAD      ACCESS:         86  HIT:         86  MISS:          0
cpu0_L1I RFO       ACCESS:          0  HIT:          0  MISS:          0
cpu0_L1I PREFETCH  ACCESS:          0  HIT:          0  MISS:          0
cpu0_L1I WRITEBACK ACCESS:          0  HIT:          0  MISS:          0
cpu0_L1I TRANSLATION ACCESS:          0  HIT:          0  MISS:          0
cpu0_L1I PREFETCH  REQUESTED:          0  ISSUED:          0  USEFUL:          0  USELESS:          0
cpu0_L1I AVERAGE MISS LATENCY: -nan cycles
cpu0_STLB TOTAL     ACCESS:     733781  HIT:     397123  MISS:     336658
cpu0_STLB LOAD      ACCESS:     477991  HIT:     310200  MISS:     167791
cpu0_STLB RFO       ACCESS:     255790  HIT:      86923  MISS:     168867
cpu0_STLB PREFETCH  ACCESS:          0  HIT:          0  MISS:          0
cpu0_STLB WRITEBACK ACCESS:          0  HIT:          0  MISS:          0
cpu0_STLB TRANSLATION ACCESS:          0  HIT:          0  MISS:          0
cpu0_STLB PREFETCH  REQUESTED:          0  ISSUED:          0  USEFUL:          0  USELESS:          0
cpu0_STLB AVERAGE MISS LATENCY: 10.448 cycles
cpu0_L1D TOTAL     ACCESS:    6848675  HIT:    4761980  MISS:    2086695
cpu0_L1D LOAD      ACCESS:    5222472  HIT:    3148203  MISS:    2074269
cpu0_L1D RFO       ACCESS:    1299117  HIT:    1288085  MISS:      11032
cpu0_L1D PREFETCH  ACCESS:          0  HIT:          0  MISS:          0
cpu0_L1D WRITEBACK ACCESS:          0  HIT:          0  MISS:          0
cpu0_L1D TRANSLATION ACCESS:     327086  HIT:     325692  MISS:       1394
cpu0_L1D PREFETCH  REQUESTED:          0  ISSUED:          0  USEFUL:          0  USELESS:          0
cpu0_L1D AVERAGE MISS LATENCY: 169.833 cycles
cpu0_L2C TOTAL     ACCESS:    3043665  HIT:    1083838  MISS:    1959827
cpu0_L2C LOAD      ACCESS:    2074269  HIT:     222369  MISS:    1851900
cpu0_L2C RFO       ACCESS:      11032  HIT:        128  MISS:      10904
cpu0_L2C PREFETCH  ACCESS:     308149  HIT:     211186  MISS:      96963
cpu0_L2C WRITEBACK ACCESS:     648821  HIT:     648808  MISS:         13
cpu0_L2C TRANSLATION ACCESS:       1394  HIT:       1347  MISS:         47
cpu0_L2C PREFETCH  REQUESTED:     322892  ISSUED:    2387488  USEFUL:    1873432  USELESS:      75722
cpu0_L2C AVERAGE MISS LATENCY: 183.194 cycles
LLC TOTAL     ACCESS:    2594358  HIT:    1254881  MISS:    1339477
LLC LOAD      ACCESS:    1851900  HIT:     610810  MISS:    1241090
LLC RFO       ACCESS:      10904  HIT:        515  MISS:      10389
LLC PREFETCH  ACCESS:      97179  HIT:       9286  MISS:      87893
LLC WRITEBACK ACCESS:     634328  HIT:     634259  MISS:         69
LLC TRANSLATION ACCESS:         47  HIT:         11  MISS:         36
LLC PREFETCH  REQUESTED:          0  ISSUED:          0  USEFUL:          0  USELESS:          0
LLC AVERAGE MISS LATENCY: 237.524 cycles

DRAM Statistics
 CHANNEL 0
 RQ ROW_BUFFER_HIT:      58739  ROW_BUFFER_MISS:    1279981
 DBUS AVG_CONGESTED_CYCLE:    3.95805
 WQ ROW_BUFFER_HIT:       1028  ROW_BUFFER_MISS:     542137  FULL:          0


CPU 0 Branch Prediction Accuracy: 81.1279% MPKI: 35.6282 Average ROB Occupancy at Mispredict: 22.2476
Branch type MPKI
BRANCH_DIRECT_JUMP: 0
BRANCH_INDIRECT: 0
BRANCH_CONDITIONAL: 35.6282
BRANCH_DIRECT_CALL: 0
BRANCH_INDIRECT_CALL: 0
BRANCH_RETURN: 0

