
*** ChampSim Multicore Out-of-Order Simulator ***

Warmup Instructions: 25000000
Simulation Instructions: 25000000
Number of CPUs: 1
Off-chip DRAM Size: 4 GiB Channels: 1 Width: 64-bit Data Rate: 3200 MT/s

VirtualMemory physical capacity: 8588881920 num_ppages: 2096895
VirtualMemory page size: 4096 log2_page_size: 12

CPU 0 runs /home/vedant/Practicals/AdvanceCA/Assignments/Assignment2/traces/bc-0.trace.gz
CPU 0 Bimodal branch predictor
Basic BTB sets: 1024 ways: 8 indirect buffer size: 4096 RAS size: 64
cpu0_L2C Stream prefetcher
WARNING: The extended signature CACHE::prefetch_line(ip, base_addr, pf_addr, fill_this_level, prefetch_metadata) is deprecated.
WARNING: Use CACHE::prefetch_line(pf_addr, fill_this_level, prefetch_metadata) instead.
Heartbeat CPU 0 instructions: 10000002 cycles: 3204398 heartbeat IPC: 3.12071 cumulative IPC: 3.12071 (Simulation time: 0 hr 0 min 52 sec) 
Heartbeat CPU 0 instructions: 20000002 cycles: 5713268 heartbeat IPC: 3.98586 cumulative IPC: 3.50062 (Simulation time: 0 hr 1 min 29 sec) 

Warmup complete CPU 0 instructions: 25000001 cycles: 6964723 (Simulation time: 0 hr 1 min 54 sec) 

Heartbeat CPU 0 instructions: 30000001 cycles: 47999582 heartbeat IPC: 0.236483 cumulative IPC: 0.121848 (Simulation time: 0 hr 3 min 11 sec) 
Heartbeat CPU 0 instructions: 40000002 cycles: 131647574 heartbeat IPC: 0.119549 cumulative IPC: 0.120305 (Simulation time: 0 hr 5 min 29 sec) 
Heartbeat CPU 0 instructions: 50000002 cycles: 215193974 heartbeat IPC: 0.119694 cumulative IPC: 0.12006 (Simulation time: 0 hr 7 min 20 sec) 
Finished CPU 0 instructions: 25000001 cycles: 208229251 cumulative IPC: 0.12006 (Simulation time: 0 hr 7 min 20 sec) 

ChampSim completed all CPUs

Region of Interest Statistics

CPU 0 cumulative IPC: 0.12006 instructions: 25000001 cycles: 208229251
cpu0_DTLB TOTAL     ACCESS:    5784053  HIT:    5050271  MISS:     733782
cpu0_DTLB LOAD      ACCESS:    4556588  HIT:    4078630  MISS:     477958
cpu0_DTLB RFO       ACCESS:    1227465  HIT:     971641  MISS:     255824
cpu0_DTLB PREFETCH  ACCESS:          0  HIT:          0  MISS:          0
cpu0_DTLB WRITEBACK ACCESS:          0  HIT:          0  MISS:          0
cpu0_DTLB TRANSLATION ACCESS:          0  HIT:          0  MISS:          0
cpu0_DTLB PREFETCH  REQUESTED:          0  ISSUED:          0  USEFUL:          0  USELESS:          0
cpu0_DTLB AVERAGE MISS LATENCY: 13.8779 cycles
cpu0_ITLB TOTAL     ACCESS:    3107161  HIT:    3107161  MISS:          0
cpu0_ITLB LOAD      ACCESS:    3107161  HIT:    3107161  MISS:          0
cpu0_ITLB RFO       ACCESS:          0  HIT:          0  MISS:          0
cpu0_ITLB PREFETCH  ACCESS:          0  HIT:          0  MISS:          0
cpu0_ITLB WRITEBACK ACCESS:          0  HIT:          0  MISS:          0
cpu0_ITLB TRANSLATION ACCESS:          0  HIT:          0  MISS:          0
cpu0_ITLB PREFETCH  REQUESTED:          0  ISSUED:          0  USEFUL:          0  USELESS:          0
cpu0_ITLB AVERAGE MISS LATENCY: -nan cycles
cpu0_L1I TOTAL     ACCESS:         86  HIT:         86  MISS:          0
cpu0_L1I LOAD      ACCESS:         86  HIT:         86  MISS:          0
cpu0_L1I RFO       ACCESS:          0  HIT:          0  MISS:          0
cpu0_L1I PREFETCH  ACCESS:          0  HIT:          0  MISS:          0
cpu0_L1I WRITEBACK ACCESS:          0  HIT:          0  MISS:          0
cpu0_L1I TRANSLATION ACCESS:          0  HIT:          0  MISS:          0
cpu0_L1I PREFETCH  REQUESTED:          0  ISSUED:          0  USEFUL:          0  USELESS:          0
cpu0_L1I AVERAGE MISS LATENCY: -nan cycles
cpu0_STLB TOTAL     ACCESS:     733782  HIT:     397124  MISS:     336658
cpu0_STLB LOAD      ACCESS:     477958  HIT:     310188  MISS:     167770
cpu0_STLB RFO       ACCESS:     255824  HIT:      86936  MISS:     168888
cpu0_STLB PREFETCH  ACCESS:          0  HIT:          0  MISS:          0
cpu0_STLB WRITEBACK ACCESS:          0  HIT:          0  MISS:          0
cpu0_STLB TRANSLATION ACCESS:          0  HIT:          0  MISS:          0
cpu0_STLB PREFETCH  REQUESTED:          0  ISSUED:          0  USEFUL:          0  USELESS:          0
cpu0_STLB AVERAGE MISS LATENCY: 10.4467 cycles
cpu0_L1D TOTAL     ACCESS:    6855463  HIT:    4768768  MISS:    2086695
cpu0_L1D LOAD      ACCESS:    5228603  HIT:    3154333  MISS:    2074270
cpu0_L1D RFO       ACCESS:    1299767  HIT:    1288735  MISS:      11032
cpu0_L1D PREFETCH  ACCESS:          0  HIT:          0  MISS:          0
cpu0_L1D WRITEBACK ACCESS:          0  HIT:          0  MISS:          0
cpu0_L1D TRANSLATION ACCESS:     327093  HIT:     325700  MISS:       1393
cpu0_L1D PREFETCH  REQUESTED:          0  ISSUED:          0  USEFUL:          0  USELESS:          0
cpu0_L1D AVERAGE MISS LATENCY: 196.964 cycles
cpu0_L2C TOTAL     ACCESS:    9806397  HIT:    5374998  MISS:    4431399
cpu0_L2C LOAD      ACCESS:    2074270  HIT:      51596  MISS:    2022674
cpu0_L2C RFO       ACCESS:      11032  HIT:         87  MISS:      10945
cpu0_L2C PREFETCH  ACCESS:    7070880  HIT:    4675588  MISS:    2395292
cpu0_L2C WRITEBACK ACCESS:     648822  HIT:     646522  MISS:       2300
cpu0_L2C TRANSLATION ACCESS:       1393  HIT:       1205  MISS:        188
cpu0_L2C PREFETCH  REQUESTED:    7886206  ISSUED:    7120783  USEFUL:    1459976  USELESS:     933663
cpu0_L2C AVERAGE MISS LATENCY: 110.779 cycles
LLC TOTAL     ACCESS:    5086389  HIT:    3482856  MISS:    1603533
LLC LOAD      ACCESS:    2022674  HIT:     588326  MISS:    1434348
LLC RFO       ACCESS:      10945  HIT:        388  MISS:      10557
LLC PREFETCH  ACCESS:    2405440  HIT:    2246901  MISS:     158539
LLC WRITEBACK ACCESS:     647142  HIT:     647131  MISS:         11
LLC TRANSLATION ACCESS:        188  HIT:        110  MISS:         78
LLC PREFETCH  REQUESTED:          0  ISSUED:          0  USEFUL:          0  USELESS:          0
LLC AVERAGE MISS LATENCY: 248.697 cycles

DRAM Statistics
 CHANNEL 0
 RQ ROW_BUFFER_HIT:      72465  ROW_BUFFER_MISS:    1530288
 DBUS AVG_CONGESTED_CYCLE:    3.95774
 WQ ROW_BUFFER_HIT:       1109  ROW_BUFFER_MISS:     578895  FULL:          0


CPU 0 Branch Prediction Accuracy: 81.1279% MPKI: 35.6282 Average ROB Occupancy at Mispredict: 20.6599
Branch type MPKI
BRANCH_DIRECT_JUMP: 0
BRANCH_INDIRECT: 0
BRANCH_CONDITIONAL: 35.6282
BRANCH_DIRECT_CALL: 0
BRANCH_INDIRECT_CALL: 0
BRANCH_RETURN: 0

