
*** ChampSim Multicore Out-of-Order Simulator ***

Warmup Instructions: 25000000
Simulation Instructions: 25000000
Number of CPUs: 1
Off-chip DRAM Size: 4 GiB Channels: 1 Width: 64-bit Data Rate: 3200 MT/s

VirtualMemory physical capacity: 8588881920 num_ppages: 2096895
VirtualMemory page size: 4096 log2_page_size: 12

CPU 0 runs /home/vedant/Practicals/AdvanceCA/Assignments/Assignment2/traces/bc-0.trace.gz
CPU 0 Bimodal branch predictor
Basic BTB sets: 1024 ways: 8 indirect buffer size: 4096 RAS size: 64
cpu0_L2C Stream prefetcher
WARNING: The extended signature CACHE::prefetch_line(ip, base_addr, pf_addr, fill_this_level, prefetch_metadata) is deprecated.
WARNING: Use CACHE::prefetch_line(pf_addr, fill_this_level, prefetch_metadata) instead.
Heartbeat CPU 0 instructions: 10000002 cycles: 3204087 heartbeat IPC: 3.12101 cumulative IPC: 3.12101 (Simulation time: 0 hr 0 min 54 sec) 
Heartbeat CPU 0 instructions: 20000000 cycles: 5712944 heartbeat IPC: 3.98588 cumulative IPC: 3.50082 (Simulation time: 0 hr 1 min 36 sec) 

Warmup complete CPU 0 instructions: 25000001 cycles: 6964376 (Simulation time: 0 hr 1 min 56 sec) 

Heartbeat CPU 0 instructions: 30000001 cycles: 46909067 heartbeat IPC: 0.242741 cumulative IPC: 0.125173 (Simulation time: 0 hr 3 min 14 sec) 
Heartbeat CPU 0 instructions: 40000002 cycles: 128473656 heartbeat IPC: 0.122602 cumulative IPC: 0.123447 (Simulation time: 0 hr 5 min 17 sec) 
Heartbeat CPU 0 instructions: 50000002 cycles: 210007616 heartbeat IPC: 0.122648 cumulative IPC: 0.123126 (Simulation time: 0 hr 7 min 1 sec) 
Finished CPU 0 instructions: 25000001 cycles: 203043240 cumulative IPC: 0.123126 (Simulation time: 0 hr 7 min 1 sec) 

ChampSim completed all CPUs

Region of Interest Statistics

CPU 0 cumulative IPC: 0.123126 instructions: 25000001 cycles: 203043240
cpu0_DTLB TOTAL     ACCESS:    5783706  HIT:    5049924  MISS:     733782
cpu0_DTLB LOAD      ACCESS:    4556080  HIT:    4078112  MISS:     477968
cpu0_DTLB RFO       ACCESS:    1227626  HIT:     971812  MISS:     255814
cpu0_DTLB PREFETCH  ACCESS:          0  HIT:          0  MISS:          0
cpu0_DTLB WRITEBACK ACCESS:          0  HIT:          0  MISS:          0
cpu0_DTLB TRANSLATION ACCESS:          0  HIT:          0  MISS:          0
cpu0_DTLB PREFETCH  REQUESTED:          0  ISSUED:          0  USEFUL:          0  USELESS:          0
cpu0_DTLB AVERAGE MISS LATENCY: 13.8845 cycles
cpu0_ITLB TOTAL     ACCESS:    3107161  HIT:    3107161  MISS:          0
cpu0_ITLB LOAD      ACCESS:    3107161  HIT:    3107161  MISS:          0
cpu0_ITLB RFO       ACCESS:          0  HIT:          0  MISS:          0
cpu0_ITLB PREFETCH  ACCESS:          0  HIT:          0  MISS:          0
cpu0_ITLB WRITEBACK ACCESS:          0  HIT:          0  MISS:          0
cpu0_ITLB TRANSLATION ACCESS:          0  HIT:          0  MISS:          0
cpu0_ITLB PREFETCH  REQUESTED:          0  ISSUED:          0  USEFUL:          0  USELESS:          0
cpu0_ITLB AVERAGE MISS LATENCY: -nan cycles
cpu0_L1I TOTAL     ACCESS:         86  HIT:         86  MISS:          0
cpu0_L1I LOAD      ACCESS:         86  HIT:         86  MISS:          0
cpu0_L1I RFO       ACCESS:          0  HIT:          0  MISS:          0
cpu0_L1I PREFETCH  ACCESS:          0  HIT:          0  MISS:          0
cpu0_L1I WRITEBACK ACCESS:          0  HIT:          0  MISS:          0
cpu0_L1I TRANSLATION ACCESS:          0  HIT:          0  MISS:          0
cpu0_L1I PREFETCH  REQUESTED:          0  ISSUED:          0  USEFUL:          0  USELESS:          0
cpu0_L1I AVERAGE MISS LATENCY: -nan cycles
cpu0_STLB TOTAL     ACCESS:     733782  HIT:     397124  MISS:     336658
cpu0_STLB LOAD      ACCESS:     477968  HIT:     310197  MISS:     167771
cpu0_STLB RFO       ACCESS:     255814  HIT:      86927  MISS:     168887
cpu0_STLB PREFETCH  ACCESS:          0  HIT:          0  MISS:          0
cpu0_STLB WRITEBACK ACCESS:          0  HIT:          0  MISS:          0
cpu0_STLB TRANSLATION ACCESS:          0  HIT:          0  MISS:          0
cpu0_STLB PREFETCH  REQUESTED:          0  ISSUED:          0  USEFUL:          0  USELESS:          0
cpu0_STLB AVERAGE MISS LATENCY: 10.4612 cycles
cpu0_L1D TOTAL     ACCESS:    6854107  HIT:    4767415  MISS:    2086692
cpu0_L1D LOAD      ACCESS:    5227369  HIT:    3153102  MISS:    2074267
cpu0_L1D RFO       ACCESS:    1299642  HIT:    1288610  MISS:      11032
cpu0_L1D PREFETCH  ACCESS:          0  HIT:          0  MISS:          0
cpu0_L1D WRITEBACK ACCESS:          0  HIT:          0  MISS:          0
cpu0_L1D TRANSLATION ACCESS:     327096  HIT:     325703  MISS:       1393
cpu0_L1D PREFETCH  REQUESTED:          0  ISSUED:          0  USEFUL:          0  USELESS:          0
cpu0_L1D AVERAGE MISS LATENCY: 189.888 cycles
cpu0_L2C TOTAL     ACCESS:    8533634  HIT:    4729500  MISS:    3804134
cpu0_L2C LOAD      ACCESS:    2074267  HIT:      68227  MISS:    2006040
cpu0_L2C RFO       ACCESS:      11032  HIT:         94  MISS:      10938
cpu0_L2C PREFETCH  ACCESS:    5798120  HIT:    4012394  MISS:    1785726
cpu0_L2C WRITEBACK ACCESS:     648822  HIT:     647535  MISS:       1287
cpu0_L2C TRANSLATION ACCESS:       1393  HIT:       1250  MISS:        143
cpu0_L2C PREFETCH  REQUESTED:    6543160  ISSUED:    5830316  USEFUL:    1149977  USELESS:     634435
cpu0_L2C AVERAGE MISS LATENCY: 116.7 cycles
LLC TOTAL     ACCESS:    4453029  HIT:    2955739  MISS:    1497290
LLC LOAD      ACCESS:    2006040  HIT:     621210  MISS:    1384830
LLC RFO       ACCESS:      10938  HIT:        412  MISS:      10526
LLC PREFETCH  ACCESS:    1789932  HIT:    1688084  MISS:     101848
LLC WRITEBACK ACCESS:     645976  HIT:     645963  MISS:         13
LLC TRANSLATION ACCESS:        143  HIT:         70  MISS:         73
LLC PREFETCH  REQUESTED:          0  ISSUED:          0  USEFUL:          0  USELESS:          0
LLC AVERAGE MISS LATENCY: 243.423 cycles

DRAM Statistics
 CHANNEL 0
 RQ ROW_BUFFER_HIT:      97393  ROW_BUFFER_MISS:    1399180
 DBUS AVG_CONGESTED_CYCLE:    3.95634
 WQ ROW_BUFFER_HIT:       1155  ROW_BUFFER_MISS:     570108  FULL:          0


CPU 0 Branch Prediction Accuracy: 81.1279% MPKI: 35.6282 Average ROB Occupancy at Mispredict: 21.0007
Branch type MPKI
BRANCH_DIRECT_JUMP: 0
BRANCH_INDIRECT: 0
BRANCH_CONDITIONAL: 35.6282
BRANCH_DIRECT_CALL: 0
BRANCH_INDIRECT_CALL: 0
BRANCH_RETURN: 0

