
*** ChampSim Multicore Out-of-Order Simulator ***

Warmup Instructions: 25000000
Simulation Instructions: 25000000
Number of CPUs: 1
Off-chip DRAM Size: 4 GiB Channels: 1 Width: 64-bit Data Rate: 3200 MT/s

VirtualMemory physical capacity: 8588881920 num_ppages: 2096895
VirtualMemory page size: 4096 log2_page_size: 12

CPU 0 runs /home/yogo/Documents/clonos/pa2-race-of-prefetchers-template/traces/bc-0.trace.gz
CPU 0 Bimodal branch predictor
Basic BTB sets: 1024 ways: 8 indirect buffer size: 4096 RAS size: 64
cpu0_L2C Hybrid Stream + IP-based stride prefetcher
WARNING: The extended signature CACHE::prefetch_line(ip, base_addr, pf_addr, fill_this_level, prefetch_metadata) is deprecated.
WARNING: Use CACHE::prefetch_line(pf_addr, fill_this_level, prefetch_metadata) instead.
Heartbeat CPU 0 instructions: 10000002 cycles: 3204828 heartbeat IPC: 3.12029 cumulative IPC: 3.12029 (Simulation time: 0 hr 0 min 56 sec) 
Heartbeat CPU 0 instructions: 20000000 cycles: 5713785 heartbeat IPC: 3.98572 cumulative IPC: 3.50031 (Simulation time: 0 hr 1 min 33 sec) 

Warmup complete CPU 0 instructions: 25000001 cycles: 6965295 (Simulation time: 0 hr 1 min 52 sec) 

Heartbeat CPU 0 instructions: 30000001 cycles: 50383563 heartbeat IPC: 0.223865 cumulative IPC: 0.115159 (Simulation time: 0 hr 2 min 50 sec) 
Heartbeat CPU 0 instructions: 40000002 cycles: 139274727 heartbeat IPC: 0.112497 cumulative IPC: 0.113371 (Simulation time: 0 hr 4 min 46 sec) 
Heartbeat CPU 0 instructions: 50000002 cycles: 228401342 heartbeat IPC: 0.1122 cumulative IPC: 0.112899 (Simulation time: 0 hr 6 min 41 sec) 
Finished CPU 0 instructions: 25000001 cycles: 221436047 cumulative IPC: 0.112899 (Simulation time: 0 hr 6 min 41 sec) 

ChampSim completed all CPUs

Region of Interest Statistics

CPU 0 cumulative IPC: 0.112899 instructions: 25000001 cycles: 221436047
cpu0_DTLB TOTAL     ACCESS:    5784566  HIT:    5050784  MISS:     733782
cpu0_DTLB LOAD      ACCESS:    4556998  HIT:    4079046  MISS:     477952
cpu0_DTLB RFO       ACCESS:    1227568  HIT:     971738  MISS:     255830
cpu0_DTLB PREFETCH  ACCESS:          0  HIT:          0  MISS:          0
cpu0_DTLB WRITEBACK ACCESS:          0  HIT:          0  MISS:          0
cpu0_DTLB TRANSLATION ACCESS:          0  HIT:          0  MISS:          0
cpu0_DTLB PREFETCH  REQUESTED:          0  ISSUED:          0  USEFUL:          0  USELESS:          0
cpu0_DTLB AVERAGE MISS LATENCY: 13.8712 cycles
cpu0_ITLB TOTAL     ACCESS:    3107161  HIT:    3107161  MISS:          0
cpu0_ITLB LOAD      ACCESS:    3107161  HIT:    3107161  MISS:          0
cpu0_ITLB RFO       ACCESS:          0  HIT:          0  MISS:          0
cpu0_ITLB PREFETCH  ACCESS:          0  HIT:          0  MISS:          0
cpu0_ITLB WRITEBACK ACCESS:          0  HIT:          0  MISS:          0
cpu0_ITLB TRANSLATION ACCESS:          0  HIT:          0  MISS:          0
cpu0_ITLB PREFETCH  REQUESTED:          0  ISSUED:          0  USEFUL:          0  USELESS:          0
cpu0_ITLB AVERAGE MISS LATENCY: -nan cycles
cpu0_L1I TOTAL     ACCESS:         86  HIT:         86  MISS:          0
cpu0_L1I LOAD      ACCESS:         86  HIT:         86  MISS:          0
cpu0_L1I RFO       ACCESS:          0  HIT:          0  MISS:          0
cpu0_L1I PREFETCH  ACCESS:          0  HIT:          0  MISS:          0
cpu0_L1I WRITEBACK ACCESS:          0  HIT:          0  MISS:          0
cpu0_L1I TRANSLATION ACCESS:          0  HIT:          0  MISS:          0
cpu0_L1I PREFETCH  REQUESTED:          0  ISSUED:          0  USEFUL:          0  USELESS:          0
cpu0_L1I AVERAGE MISS LATENCY: -nan cycles
cpu0_STLB TOTAL     ACCESS:     733782  HIT:     397124  MISS:     336658
cpu0_STLB LOAD      ACCESS:     477952  HIT:     310190  MISS:     167762
cpu0_STLB RFO       ACCESS:     255830  HIT:      86934  MISS:     168896
cpu0_STLB PREFETCH  ACCESS:          0  HIT:          0  MISS:          0
cpu0_STLB WRITEBACK ACCESS:          0  HIT:          0  MISS:          0
cpu0_STLB TRANSLATION ACCESS:          0  HIT:          0  MISS:          0
cpu0_STLB PREFETCH  REQUESTED:          0  ISSUED:          0  USEFUL:          0  USELESS:          0
cpu0_STLB AVERAGE MISS LATENCY: 10.4321 cycles
cpu0_L1D TOTAL     ACCESS:    6856705  HIT:    4770013  MISS:    2086692
cpu0_L1D LOAD      ACCESS:    5229572  HIT:    3155305  MISS:    2074267
cpu0_L1D RFO       ACCESS:    1300033  HIT:    1289001  MISS:      11032
cpu0_L1D PREFETCH  ACCESS:          0  HIT:          0  MISS:          0
cpu0_L1D WRITEBACK ACCESS:          0  HIT:          0  MISS:          0
cpu0_L1D TRANSLATION ACCESS:     327100  HIT:     325707  MISS:       1393
cpu0_L1D PREFETCH  REQUESTED:          0  ISSUED:          0  USEFUL:          0  USELESS:          0
cpu0_L1D AVERAGE MISS LATENCY: 213.93 cycles
cpu0_L2C TOTAL     ACCESS:   10952016  HIT:    5721772  MISS:    5230244
cpu0_L2C LOAD      ACCESS:    2074267  HIT:      38433  MISS:    2035834
cpu0_L2C RFO       ACCESS:      11032  HIT:         68  MISS:      10964
cpu0_L2C PREFETCH  ACCESS:    8216502  HIT:    5038063  MISS:    3178439
cpu0_L2C WRITEBACK ACCESS:     648822  HIT:     644113  MISS:       4709
cpu0_L2C TRANSLATION ACCESS:       1393  HIT:       1095  MISS:        298
cpu0_L2C PREFETCH  REQUESTED:    9057845  ISSUED:    8326240  USEFUL:    1777398  USELESS:    1399391
cpu0_L2C AVERAGE MISS LATENCY: 123.185 cycles
LLC TOTAL     ACCESS:    5897575  HIT:    3941663  MISS:    1955912
LLC LOAD      ACCESS:    2035834  HIT:     518473  MISS:    1517361
LLC RFO       ACCESS:      10964  HIT:        362  MISS:      10602
LLC PREFETCH  ACCESS:    3202722  HIT:    2774869  MISS:     427853
LLC WRITEBACK ACCESS:     647757  HIT:     647746  MISS:         11
LLC TRANSLATION ACCESS:        298  HIT:        213  MISS:         85
LLC PREFETCH  REQUESTED:          0  ISSUED:          0  USEFUL:          0  USELESS:          0
LLC AVERAGE MISS LATENCY: 275.248 cycles

DRAM Statistics
 CHANNEL 0
 RQ ROW_BUFFER_HIT:     215068  ROW_BUFFER_MISS:    1740163
 DBUS AVG_CONGESTED_CYCLE:    3.95705
 WQ ROW_BUFFER_HIT:       1374  ROW_BUFFER_MISS:     592009  FULL:          0


CPU 0 Branch Prediction Accuracy: 81.1279% MPKI: 35.6282 Average ROB Occupancy at Mispredict: 20.1972
Branch type MPKI
BRANCH_DIRECT_JUMP: 0
BRANCH_INDIRECT: 0
BRANCH_CONDITIONAL: 35.6282
BRANCH_DIRECT_CALL: 0
BRANCH_INDIRECT_CALL: 0
BRANCH_RETURN: 0

