
*** ChampSim Multicore Out-of-Order Simulator ***

Warmup Instructions: 25000000
Simulation Instructions: 25000000
Number of CPUs: 1
Off-chip DRAM Size: 4 GiB Channels: 1 Width: 64-bit Data Rate: 3200 MT/s

VirtualMemory physical capacity: 8588881920 num_ppages: 2096895
VirtualMemory page size: 4096 log2_page_size: 12

CPU 0 runs /home/ravi/ACA/pa2-race-of-prefetchers-random/Traces/bc-0.trace.gz
CPU 0 Bimodal branch predictor
Basic BTB sets: 1024 ways: 8 indirect buffer size: 4096 RAS size: 64
Heartbeat CPU 0 instructions: 10000002 cycles: 3203422 heartbeat IPC: 3.12166 cumulative IPC: 3.12166 (Simulation time: 0 hr 1 min 1 sec) 
Heartbeat CPU 0 instructions: 20000000 cycles: 5712244 heartbeat IPC: 3.98593 cumulative IPC: 3.50125 (Simulation time: 0 hr 1 min 45 sec) 

Warmup complete CPU 0 instructions: 25000001 cycles: 6963674 (Simulation time: 0 hr 2 min 2 sec) 

Heartbeat CPU 0 instructions: 30000001 cycles: 42816531 heartbeat IPC: 0.269511 cumulative IPC: 0.139459 (Simulation time: 0 hr 2 min 56 sec) 
Heartbeat CPU 0 instructions: 40000002 cycles: 116245369 heartbeat IPC: 0.136186 cumulative IPC: 0.13726 (Simulation time: 0 hr 5 min 16 sec) 
Heartbeat CPU 0 instructions: 50000002 cycles: 189430011 heartbeat IPC: 0.136641 cumulative IPC: 0.137012 (Simulation time: 0 hr 6 min 49 sec) 
Finished CPU 0 instructions: 25000001 cycles: 182466337 cumulative IPC: 0.137012 (Simulation time: 0 hr 6 min 49 sec) 

ChampSim completed all CPUs

Region of Interest Statistics

CPU 0 cumulative IPC: 0.137012 instructions: 25000001 cycles: 182466337
cpu0_DTLB TOTAL     ACCESS:    5781888  HIT:    5048107  MISS:     733781
cpu0_DTLB LOAD      ACCESS:    4554415  HIT:    4076412  MISS:     478003
cpu0_DTLB RFO       ACCESS:    1227473  HIT:     971695  MISS:     255778
cpu0_DTLB PREFETCH  ACCESS:          0  HIT:          0  MISS:          0
cpu0_DTLB WRITEBACK ACCESS:          0  HIT:          0  MISS:          0
cpu0_DTLB TRANSLATION ACCESS:          0  HIT:          0  MISS:          0
cpu0_DTLB PREFETCH  REQUESTED:          0  ISSUED:          0  USEFUL:          0  USELESS:          0
cpu0_DTLB AVERAGE MISS LATENCY: 13.8808 cycles
cpu0_ITLB TOTAL     ACCESS:    3107161  HIT:    3107161  MISS:          0
cpu0_ITLB LOAD      ACCESS:    3107161  HIT:    3107161  MISS:          0
cpu0_ITLB RFO       ACCESS:          0  HIT:          0  MISS:          0
cpu0_ITLB PREFETCH  ACCESS:          0  HIT:          0  MISS:          0
cpu0_ITLB WRITEBACK ACCESS:          0  HIT:          0  MISS:          0
cpu0_ITLB TRANSLATION ACCESS:          0  HIT:          0  MISS:          0
cpu0_ITLB PREFETCH  REQUESTED:          0  ISSUED:          0  USEFUL:          0  USELESS:          0
cpu0_ITLB AVERAGE MISS LATENCY: -nan cycles
cpu0_L1I TOTAL     ACCESS:         86  HIT:         86  MISS:          0
cpu0_L1I LOAD      ACCESS:         86  HIT:         86  MISS:          0
cpu0_L1I RFO       ACCESS:          0  HIT:          0  MISS:          0
cpu0_L1I PREFETCH  ACCESS:          0  HIT:          0  MISS:          0
cpu0_L1I WRITEBACK ACCESS:          0  HIT:          0  MISS:          0
cpu0_L1I TRANSLATION ACCESS:          0  HIT:          0  MISS:          0
cpu0_L1I PREFETCH  REQUESTED:          0  ISSUED:          0  USEFUL:          0  USELESS:          0
cpu0_L1I AVERAGE MISS LATENCY: -nan cycles
cpu0_STLB TOTAL     ACCESS:     733781  HIT:     397123  MISS:     336658
cpu0_STLB LOAD      ACCESS:     478003  HIT:     310208  MISS:     167795
cpu0_STLB RFO       ACCESS:     255778  HIT:      86915  MISS:     168863
cpu0_STLB PREFETCH  ACCESS:          0  HIT:          0  MISS:          0
cpu0_STLB WRITEBACK ACCESS:          0  HIT:          0  MISS:          0
cpu0_STLB TRANSLATION ACCESS:          0  HIT:          0  MISS:          0
cpu0_STLB PREFETCH  REQUESTED:          0  ISSUED:          0  USEFUL:          0  USELESS:          0
cpu0_STLB AVERAGE MISS LATENCY: 10.4532 cycles
cpu0_L1D TOTAL     ACCESS:    6847735  HIT:    4761039  MISS:    2086696
cpu0_L1D LOAD      ACCESS:    5221751  HIT:    3147481  MISS:    2074270
cpu0_L1D RFO       ACCESS:    1298906  HIT:    1287874  MISS:      11032
cpu0_L1D PREFETCH  ACCESS:          0  HIT:          0  MISS:          0
cpu0_L1D WRITEBACK ACCESS:          0  HIT:          0  MISS:          0
cpu0_L1D TRANSLATION ACCESS:     327078  HIT:     325684  MISS:       1394
cpu0_L1D PREFETCH  REQUESTED:          0  ISSUED:          0  USEFUL:          0  USELESS:          0
cpu0_L1D AVERAGE MISS LATENCY: 163.364 cycles
cpu0_L2C TOTAL     ACCESS:    2735518  HIT:     881236  MISS:    1854282
cpu0_L2C LOAD      ACCESS:    2074270  HIT:     230943  MISS:    1843327
cpu0_L2C RFO       ACCESS:      11032  HIT:        137  MISS:      10895
cpu0_L2C PREFETCH  ACCESS:          0  HIT:          0  MISS:          0
cpu0_L2C WRITEBACK ACCESS:     648822  HIT:     648809  MISS:         13
cpu0_L2C TRANSLATION ACCESS:       1394  HIT:       1347  MISS:         47
cpu0_L2C PREFETCH  REQUESTED:          0  ISSUED:          0  USEFUL:          0  USELESS:          0
cpu0_L2C AVERAGE MISS LATENCY: 171.244 cycles
LLC TOTAL     ACCESS:    2487905  HIT:    1273451  MISS:    1214454
LLC LOAD      ACCESS:    1843327  HIT:     639329  MISS:    1203998
LLC RFO       ACCESS:      10895  HIT:        543  MISS:      10352
LLC PREFETCH  ACCESS:          0  HIT:          0  MISS:          0
LLC WRITEBACK ACCESS:     633636  HIT:     633568  MISS:         68
LLC TRANSLATION ACCESS:         47  HIT:         11  MISS:         36
LLC PREFETCH  REQUESTED:          0  ISSUED:          0  USEFUL:          0  USELESS:          0
LLC AVERAGE MISS LATENCY: 229.399 cycles

DRAM Statistics
 CHANNEL 0
 RQ ROW_BUFFER_HIT:      53705  ROW_BUFFER_MISS:    1159973
 DBUS AVG_CONGESTED_CYCLE:    3.95823
 WQ ROW_BUFFER_HIT:       1094  ROW_BUFFER_MISS:     533878  FULL:          0


CPU 0 Branch Prediction Accuracy: 81.1279% MPKI: 35.6282 Average ROB Occupancy at Mispredict: 22.5009
Branch type MPKI
BRANCH_DIRECT_JUMP: 0
BRANCH_INDIRECT: 0
BRANCH_CONDITIONAL: 35.6282
BRANCH_DIRECT_CALL: 0
BRANCH_INDIRECT_CALL: 0
BRANCH_RETURN: 0

