
*** ChampSim Multicore Out-of-Order Simulator ***

Warmup Instructions: 25000000
Simulation Instructions: 25000000
Number of CPUs: 1
Off-chip DRAM Size: 4 GiB Channels: 1 Width: 64-bit Data Rate: 3200 MT/s

VirtualMemory physical capacity: 8588881920 num_ppages: 2096895
VirtualMemory page size: 4096 log2_page_size: 12

CPU 0 runs /home/vedant/Practicals/AdvanceCA/Assignments/Assignment2/traces/bc-0.trace.gz
CPU 0 Bimodal branch predictor
Basic BTB sets: 1024 ways: 8 indirect buffer size: 4096 RAS size: 64
cpu0_L2C IP-based stride prefetcher
WARNING: The extended signature CACHE::prefetch_line(ip, base_addr, pf_addr, fill_this_level, prefetch_metadata) is deprecated.
WARNING: Use CACHE::prefetch_line(pf_addr, fill_this_level, prefetch_metadata) instead.
Heartbeat CPU 0 instructions: 10000002 cycles: 3203425 heartbeat IPC: 3.12166 cumulative IPC: 3.12166 (Simulation time: 0 hr 0 min 52 sec) 
Heartbeat CPU 0 instructions: 20000000 cycles: 5712248 heartbeat IPC: 3.98593 cumulative IPC: 3.50125 (Simulation time: 0 hr 1 min 27 sec) 

Warmup complete CPU 0 instructions: 25000001 cycles: 6963679 (Simulation time: 0 hr 1 min 43 sec) 

Heartbeat CPU 0 instructions: 30000001 cycles: 44635532 heartbeat IPC: 0.256916 cumulative IPC: 0.132725 (Simulation time: 0 hr 2 min 41 sec) 
Heartbeat CPU 0 instructions: 40000002 cycles: 122679754 heartbeat IPC: 0.128132 cumulative IPC: 0.129628 (Simulation time: 0 hr 4 min 31 sec) 
Heartbeat CPU 0 instructions: 50000002 cycles: 200771076 heartbeat IPC: 0.128055 cumulative IPC: 0.128994 (Simulation time: 0 hr 6 min 17 sec) 
Finished CPU 0 instructions: 25000001 cycles: 193807397 cumulative IPC: 0.128994 (Simulation time: 0 hr 6 min 17 sec) 

ChampSim completed all CPUs

Region of Interest Statistics

CPU 0 cumulative IPC: 0.128994 instructions: 25000001 cycles: 193807397
cpu0_DTLB TOTAL     ACCESS:    5782401  HIT:    5048619  MISS:     733782
cpu0_DTLB LOAD      ACCESS:    4554844  HIT:    4076862  MISS:     477982
cpu0_DTLB RFO       ACCESS:    1227557  HIT:     971757  MISS:     255800
cpu0_DTLB PREFETCH  ACCESS:          0  HIT:          0  MISS:          0
cpu0_DTLB WRITEBACK ACCESS:          0  HIT:          0  MISS:          0
cpu0_DTLB TRANSLATION ACCESS:          0  HIT:          0  MISS:          0
cpu0_DTLB PREFETCH  REQUESTED:          0  ISSUED:          0  USEFUL:          0  USELESS:          0
cpu0_DTLB AVERAGE MISS LATENCY: 13.8675 cycles
cpu0_ITLB TOTAL     ACCESS:    3107161  HIT:    3107161  MISS:          0
cpu0_ITLB LOAD      ACCESS:    3107161  HIT:    3107161  MISS:          0
cpu0_ITLB RFO       ACCESS:          0  HIT:          0  MISS:          0
cpu0_ITLB PREFETCH  ACCESS:          0  HIT:          0  MISS:          0
cpu0_ITLB WRITEBACK ACCESS:          0  HIT:          0  MISS:          0
cpu0_ITLB TRANSLATION ACCESS:          0  HIT:          0  MISS:          0
cpu0_ITLB PREFETCH  REQUESTED:          0  ISSUED:          0  USEFUL:          0  USELESS:          0
cpu0_ITLB AVERAGE MISS LATENCY: -nan cycles
cpu0_L1I TOTAL     ACCESS:         86  HIT:         86  MISS:          0
cpu0_L1I LOAD      ACCESS:         86  HIT:         86  MISS:          0
cpu0_L1I RFO       ACCESS:          0  HIT:          0  MISS:          0
cpu0_L1I PREFETCH  ACCESS:          0  HIT:          0  MISS:          0
cpu0_L1I WRITEBACK ACCESS:          0  HIT:          0  MISS:          0
cpu0_L1I TRANSLATION ACCESS:          0  HIT:          0  MISS:          0
cpu0_L1I PREFETCH  REQUESTED:          0  ISSUED:          0  USEFUL:          0  USELESS:          0
cpu0_L1I AVERAGE MISS LATENCY: -nan cycles
cpu0_STLB TOTAL     ACCESS:     733782  HIT:     397124  MISS:     336658
cpu0_STLB LOAD      ACCESS:     477982  HIT:     310199  MISS:     167783
cpu0_STLB RFO       ACCESS:     255800  HIT:      86925  MISS:     168875
cpu0_STLB PREFETCH  ACCESS:          0  HIT:          0  MISS:          0
cpu0_STLB WRITEBACK ACCESS:          0  HIT:          0  MISS:          0
cpu0_STLB TRANSLATION ACCESS:          0  HIT:          0  MISS:          0
cpu0_STLB PREFETCH  REQUESTED:          0  ISSUED:          0  USEFUL:          0  USELESS:          0
cpu0_STLB AVERAGE MISS LATENCY: 10.424 cycles
cpu0_L1D TOTAL     ACCESS:    6850146  HIT:    4763450  MISS:    2086696
cpu0_L1D LOAD      ACCESS:    5223679  HIT:    3149409  MISS:    2074270
cpu0_L1D RFO       ACCESS:    1299378  HIT:    1288346  MISS:      11032
cpu0_L1D PREFETCH  ACCESS:          0  HIT:          0  MISS:          0
cpu0_L1D WRITEBACK ACCESS:          0  HIT:          0  MISS:          0
cpu0_L1D TRANSLATION ACCESS:     327089  HIT:     325695  MISS:       1394
cpu0_L1D PREFETCH  REQUESTED:          0  ISSUED:          0  USEFUL:          0  USELESS:          0
cpu0_L1D AVERAGE MISS LATENCY: 177.773 cycles
cpu0_L2C TOTAL     ACCESS:    3590385  HIT:    1476354  MISS:    2114031
cpu0_L2C LOAD      ACCESS:    2074270  HIT:     212091  MISS:    1862179
cpu0_L2C RFO       ACCESS:      11032  HIT:        121  MISS:      10911
cpu0_L2C PREFETCH  ACCESS:     854867  HIT:     613988  MISS:     240879
cpu0_L2C WRITEBACK ACCESS:     648822  HIT:     648807  MISS:         15
cpu0_L2C TRANSLATION ACCESS:       1394  HIT:       1347  MISS:         47
cpu0_L2C PREFETCH  REQUESTED:     893103  ISSUED:     872323  USEFUL:      62825  USELESS:     178740
cpu0_L2C AVERAGE MISS LATENCY: 201.806 cycles
LLC TOTAL     ACCESS:    2749482  HIT:    1238223  MISS:    1511259
LLC LOAD      ACCESS:    1862179  HIT:     575739  MISS:    1286440
LLC RFO       ACCESS:      10911  HIT:        470  MISS:      10441
LLC PREFETCH  ACCESS:     241238  HIT:      26963  MISS:     214275
LLC WRITEBACK ACCESS:     635107  HIT:     635040  MISS:         67
LLC TRANSLATION ACCESS:         47  HIT:         11  MISS:         36
LLC PREFETCH  REQUESTED:          0  ISSUED:          0  USEFUL:          0  USELESS:          0
LLC AVERAGE MISS LATENCY: 253.173 cycles

DRAM Statistics
 CHANNEL 0
 RQ ROW_BUFFER_HIT:      88488  ROW_BUFFER_MISS:    1422024
 DBUS AVG_CONGESTED_CYCLE:    3.95872
 WQ ROW_BUFFER_HIT:       1077  ROW_BUFFER_MISS:     551424  FULL:          0


CPU 0 Branch Prediction Accuracy: 81.1279% MPKI: 35.6282 Average ROB Occupancy at Mispredict: 21.9114
Branch type MPKI
BRANCH_DIRECT_JUMP: 0
BRANCH_INDIRECT: 0
BRANCH_CONDITIONAL: 35.6282
BRANCH_DIRECT_CALL: 0
BRANCH_INDIRECT_CALL: 0
BRANCH_RETURN: 0

