
*** ChampSim Multicore Out-of-Order Simulator ***

Warmup Instructions: 25000000
Simulation Instructions: 25000000
Number of CPUs: 1
Off-chip DRAM Size: 4 GiB Channels: 1 Width: 64-bit Data Rate: 3200 MT/s

VirtualMemory physical capacity: 8588881920 num_ppages: 2096895
VirtualMemory page size: 4096 log2_page_size: 12

CPU 0 runs /home/yogo/Documents/clonos/pa2-race-of-prefetchers-template/traces/bc-0.trace.gz
CPU 0 Bimodal branch predictor
Basic BTB sets: 1024 ways: 8 indirect buffer size: 4096 RAS size: 64
cpu0_L2C Hybrid Stream + IP-based stride prefetcher
WARNING: The extended signature CACHE::prefetch_line(ip, base_addr, pf_addr, fill_this_level, prefetch_metadata) is deprecated.
WARNING: Use CACHE::prefetch_line(pf_addr, fill_this_level, prefetch_metadata) instead.
Heartbeat CPU 0 instructions: 10000002 cycles: 3203680 heartbeat IPC: 3.12141 cumulative IPC: 3.12141 (Simulation time: 0 hr 0 min 56 sec) 
Heartbeat CPU 0 instructions: 20000002 cycles: 5712537 heartbeat IPC: 3.98588 cumulative IPC: 3.50107 (Simulation time: 0 hr 1 min 40 sec) 

Warmup complete CPU 0 instructions: 25000002 cycles: 6963969 (Simulation time: 0 hr 1 min 59 sec) 

Heartbeat CPU 0 instructions: 30000001 cycles: 46366807 heartbeat IPC: 0.245977 cumulative IPC: 0.126894 (Simulation time: 0 hr 3 min 38 sec) 
Heartbeat CPU 0 instructions: 40000002 cycles: 127257719 heartbeat IPC: 0.123623 cumulative IPC: 0.124695 (Simulation time: 0 hr 6 min 10 sec) 
Heartbeat CPU 0 instructions: 50000002 cycles: 208000819 heartbeat IPC: 0.12385 cumulative IPC: 0.124355 (Simulation time: 0 hr 7 min 48 sec) 
Finished CPU 0 instructions: 25000000 cycles: 201036850 cumulative IPC: 0.124355 (Simulation time: 0 hr 7 min 48 sec) 

ChampSim completed all CPUs

Region of Interest Statistics

CPU 0 cumulative IPC: 0.124355 instructions: 25000000 cycles: 201036850
cpu0_DTLB TOTAL     ACCESS:    5783447  HIT:    5049665  MISS:     733782
cpu0_DTLB LOAD      ACCESS:    4555870  HIT:    4077891  MISS:     477979
cpu0_DTLB RFO       ACCESS:    1227577  HIT:     971774  MISS:     255803
cpu0_DTLB PREFETCH  ACCESS:          0  HIT:          0  MISS:          0
cpu0_DTLB WRITEBACK ACCESS:          0  HIT:          0  MISS:          0
cpu0_DTLB TRANSLATION ACCESS:          0  HIT:          0  MISS:          0
cpu0_DTLB PREFETCH  REQUESTED:          0  ISSUED:          0  USEFUL:          0  USELESS:          0
cpu0_DTLB AVERAGE MISS LATENCY: 13.8764 cycles
cpu0_ITLB TOTAL     ACCESS:    3107161  HIT:    3107161  MISS:          0
cpu0_ITLB LOAD      ACCESS:    3107161  HIT:    3107161  MISS:          0
cpu0_ITLB RFO       ACCESS:          0  HIT:          0  MISS:          0
cpu0_ITLB PREFETCH  ACCESS:          0  HIT:          0  MISS:          0
cpu0_ITLB WRITEBACK ACCESS:          0  HIT:          0  MISS:          0
cpu0_ITLB TRANSLATION ACCESS:          0  HIT:          0  MISS:          0
cpu0_ITLB PREFETCH  REQUESTED:          0  ISSUED:          0  USEFUL:          0  USELESS:          0
cpu0_ITLB AVERAGE MISS LATENCY: -nan cycles
cpu0_L1I TOTAL     ACCESS:         86  HIT:         86  MISS:          0
cpu0_L1I LOAD      ACCESS:         86  HIT:         86  MISS:          0
cpu0_L1I RFO       ACCESS:          0  HIT:          0  MISS:          0
cpu0_L1I PREFETCH  ACCESS:          0  HIT:          0  MISS:          0
cpu0_L1I WRITEBACK ACCESS:          0  HIT:          0  MISS:          0
cpu0_L1I TRANSLATION ACCESS:          0  HIT:          0  MISS:          0
cpu0_L1I PREFETCH  REQUESTED:          0  ISSUED:          0  USEFUL:          0  USELESS:          0
cpu0_L1I AVERAGE MISS LATENCY: -nan cycles
cpu0_STLB TOTAL     ACCESS:     733782  HIT:     397124  MISS:     336658
cpu0_STLB LOAD      ACCESS:     477979  HIT:     310196  MISS:     167783
cpu0_STLB RFO       ACCESS:     255803  HIT:      86928  MISS:     168875
cpu0_STLB PREFETCH  ACCESS:          0  HIT:          0  MISS:          0
cpu0_STLB WRITEBACK ACCESS:          0  HIT:          0  MISS:          0
cpu0_STLB TRANSLATION ACCESS:          0  HIT:          0  MISS:          0
cpu0_STLB PREFETCH  REQUESTED:          0  ISSUED:          0  USEFUL:          0  USELESS:          0
cpu0_STLB AVERAGE MISS LATENCY: 10.4434 cycles
cpu0_L1D TOTAL     ACCESS:    6852982  HIT:    4766285  MISS:    2086697
cpu0_L1D LOAD      ACCESS:    5226300  HIT:    3152029  MISS:    2074271
cpu0_L1D RFO       ACCESS:    1299597  HIT:    1288565  MISS:      11032
cpu0_L1D PREFETCH  ACCESS:          0  HIT:          0  MISS:          0
cpu0_L1D WRITEBACK ACCESS:          0  HIT:          0  MISS:          0
cpu0_L1D TRANSLATION ACCESS:     327085  HIT:     325691  MISS:       1394
cpu0_L1D PREFETCH  REQUESTED:          0  ISSUED:          0  USEFUL:          0  USELESS:          0
cpu0_L1D AVERAGE MISS LATENCY: 187.515 cycles
cpu0_L2C TOTAL     ACCESS:    7217952  HIT:    3949774  MISS:    3268178
cpu0_L2C LOAD      ACCESS:    2074271  HIT:      91322  MISS:    1982949
cpu0_L2C RFO       ACCESS:      11032  HIT:         94  MISS:      10938
cpu0_L2C PREFETCH  ACCESS:    4482432  HIT:    3208621  MISS:    1273811
cpu0_L2C WRITEBACK ACCESS:     648823  HIT:     648430  MISS:        393
cpu0_L2C TRANSLATION ACCESS:       1394  HIT:       1307  MISS:         87
cpu0_L2C PREFETCH  REQUESTED:    5121575  ISSUED:    4506673  USEFUL:     842008  USELESS:     431200
cpu0_L2C AVERAGE MISS LATENCY: 134.86 cycles
LLC TOTAL     ACCESS:    3914074  HIT:    2391281  MISS:    1522793
LLC LOAD      ACCESS:    1982949  HIT:     620300  MISS:    1362649
LLC RFO       ACCESS:      10938  HIT:        434  MISS:      10504
LLC PREFETCH  ACCESS:    1275457  HIT:    1125885  MISS:     149572
LLC WRITEBACK ACCESS:     644643  HIT:     644633  MISS:         10
LLC TRANSLATION ACCESS:         87  HIT:         29  MISS:         58
LLC PREFETCH  REQUESTED:          0  ISSUED:          0  USEFUL:          0  USELESS:          0
LLC AVERAGE MISS LATENCY: 244.566 cycles

DRAM Statistics
 CHANNEL 0
 RQ ROW_BUFFER_HIT:      72306  ROW_BUFFER_MISS:    1449805
 DBUS AVG_CONGESTED_CYCLE:    3.95703
 WQ ROW_BUFFER_HIT:       1073  ROW_BUFFER_MISS:     566490  FULL:          0


CPU 0 Branch Prediction Accuracy: 81.1279% MPKI: 35.6282 Average ROB Occupancy at Mispredict: 21.221
Branch type MPKI
BRANCH_DIRECT_JUMP: 0
BRANCH_INDIRECT: 0
BRANCH_CONDITIONAL: 35.6282
BRANCH_DIRECT_CALL: 0
BRANCH_INDIRECT_CALL: 0
BRANCH_RETURN: 0

