
*** ChampSim Multicore Out-of-Order Simulator ***

Warmup Instructions: 25000000
Simulation Instructions: 25000000
Number of CPUs: 1
Off-chip DRAM Size: 4 GiB Channels: 1 Width: 64-bit Data Rate: 3200 MT/s

VirtualMemory physical capacity: 8588881920 num_ppages: 2096895
VirtualMemory page size: 4096 log2_page_size: 12

CPU 0 runs /home/ravi/ACA/pa2-race-of-prefetchers-random/Traces/bc-0.trace.gz
CPU 0 Bimodal branch predictor
Basic BTB sets: 1024 ways: 8 indirect buffer size: 4096 RAS size: 64
cpu0_L2C IP-based stride prefetcher
WARNING: The extended signature CACHE::prefetch_line(ip, base_addr, pf_addr, fill_this_level, prefetch_metadata) is deprecated.
WARNING: Use CACHE::prefetch_line(pf_addr, fill_this_level, prefetch_metadata) instead.
Heartbeat CPU 0 instructions: 10000002 cycles: 3203426 heartbeat IPC: 3.12166 cumulative IPC: 3.12166 (Simulation time: 0 hr 1 min 2 sec) 
Heartbeat CPU 0 instructions: 20000001 cycles: 5712250 heartbeat IPC: 3.98593 cumulative IPC: 3.50125 (Simulation time: 0 hr 1 min 41 sec) 

Warmup complete CPU 0 instructions: 25000003 cycles: 6963681 (Simulation time: 0 hr 2 min 6 sec) 

Heartbeat CPU 0 instructions: 30000001 cycles: 43903466 heartbeat IPC: 0.26184 cumulative IPC: 0.135355 (Simulation time: 0 hr 3 min 6 sec) 
Heartbeat CPU 0 instructions: 40000002 cycles: 120183921 heartbeat IPC: 0.131095 cumulative IPC: 0.132485 (Simulation time: 0 hr 4 min 58 sec) 
Heartbeat CPU 0 instructions: 50000002 cycles: 196383864 heartbeat IPC: 0.131234 cumulative IPC: 0.131982 (Simulation time: 0 hr 6 min 43 sec) 
Finished CPU 0 instructions: 25000004 cycles: 189420184 cumulative IPC: 0.131982 (Simulation time: 0 hr 6 min 43 sec) 

ChampSim completed all CPUs

Region of Interest Statistics

CPU 0 cumulative IPC: 0.131982 instructions: 25000004 cycles: 189420184
cpu0_DTLB TOTAL     ACCESS:    5781839  HIT:    5048057  MISS:     733782
cpu0_DTLB LOAD      ACCESS:    4554372  HIT:    4076383  MISS:     477989
cpu0_DTLB RFO       ACCESS:    1227467  HIT:     971674  MISS:     255793
cpu0_DTLB PREFETCH  ACCESS:          0  HIT:          0  MISS:          0
cpu0_DTLB WRITEBACK ACCESS:          0  HIT:          0  MISS:          0
cpu0_DTLB TRANSLATION ACCESS:          0  HIT:          0  MISS:          0
cpu0_DTLB PREFETCH  REQUESTED:          0  ISSUED:          0  USEFUL:          0  USELESS:          0
cpu0_DTLB AVERAGE MISS LATENCY: 13.8781 cycles
cpu0_ITLB TOTAL     ACCESS:    3107161  HIT:    3107161  MISS:          0
cpu0_ITLB LOAD      ACCESS:    3107161  HIT:    3107161  MISS:          0
cpu0_ITLB RFO       ACCESS:          0  HIT:          0  MISS:          0
cpu0_ITLB PREFETCH  ACCESS:          0  HIT:          0  MISS:          0
cpu0_ITLB WRITEBACK ACCESS:          0  HIT:          0  MISS:          0
cpu0_ITLB TRANSLATION ACCESS:          0  HIT:          0  MISS:          0
cpu0_ITLB PREFETCH  REQUESTED:          0  ISSUED:          0  USEFUL:          0  USELESS:          0
cpu0_ITLB AVERAGE MISS LATENCY: -nan cycles
cpu0_L1I TOTAL     ACCESS:         86  HIT:         86  MISS:          0
cpu0_L1I LOAD      ACCESS:         86  HIT:         86  MISS:          0
cpu0_L1I RFO       ACCESS:          0  HIT:          0  MISS:          0
cpu0_L1I PREFETCH  ACCESS:          0  HIT:          0  MISS:          0
cpu0_L1I WRITEBACK ACCESS:          0  HIT:          0  MISS:          0
cpu0_L1I TRANSLATION ACCESS:          0  HIT:          0  MISS:          0
cpu0_L1I PREFETCH  REQUESTED:          0  ISSUED:          0  USEFUL:          0  USELESS:          0
cpu0_L1I AVERAGE MISS LATENCY: -nan cycles
cpu0_STLB TOTAL     ACCESS:     733782  HIT:     397124  MISS:     336658
cpu0_STLB LOAD      ACCESS:     477989  HIT:     310199  MISS:     167790
cpu0_STLB RFO       ACCESS:     255793  HIT:      86925  MISS:     168868
cpu0_STLB PREFETCH  ACCESS:          0  HIT:          0  MISS:          0
cpu0_STLB WRITEBACK ACCESS:          0  HIT:          0  MISS:          0
cpu0_STLB TRANSLATION ACCESS:          0  HIT:          0  MISS:          0
cpu0_STLB PREFETCH  REQUESTED:          0  ISSUED:          0  USEFUL:          0  USELESS:          0
cpu0_STLB AVERAGE MISS LATENCY: 10.4473 cycles
cpu0_L1D TOTAL     ACCESS:    6849133  HIT:    4762438  MISS:    2086695
cpu0_L1D LOAD      ACCESS:    5222831  HIT:    3148562  MISS:    2074269
cpu0_L1D RFO       ACCESS:    1299215  HIT:    1288183  MISS:      11032
cpu0_L1D PREFETCH  ACCESS:          0  HIT:          0  MISS:          0
cpu0_L1D WRITEBACK ACCESS:          0  HIT:          0  MISS:          0
cpu0_L1D TRANSLATION ACCESS:     327087  HIT:     325693  MISS:       1394
cpu0_L1D PREFETCH  REQUESTED:          0  ISSUED:          0  USEFUL:          0  USELESS:          0
cpu0_L1D AVERAGE MISS LATENCY: 172.21 cycles
cpu0_L2C TOTAL     ACCESS:    3187903  HIT:    1184085  MISS:    2003818
cpu0_L2C LOAD      ACCESS:    2074269  HIT:     219278  MISS:    1854991
cpu0_L2C RFO       ACCESS:      11032  HIT:        128  MISS:      10904
cpu0_L2C PREFETCH  ACCESS:     452387  HIT:     314524  MISS:     137863
cpu0_L2C WRITEBACK ACCESS:     648821  HIT:     648808  MISS:         13
cpu0_L2C TRANSLATION ACCESS:       1394  HIT:       1347  MISS:         47
cpu0_L2C PREFETCH  REQUESTED:     473044  ISSUED:     460311  USEFUL:      32645  USELESS:     105632
cpu0_L2C AVERAGE MISS LATENCY: 188.329 cycles
LLC TOTAL     ACCESS:    2638417  HIT:    1249108  MISS:    1389309
LLC LOAD      ACCESS:    1854991  HIT:     600078  MISS:    1254913
LLC RFO       ACCESS:      10904  HIT:        489  MISS:      10415
LLC PREFETCH  ACCESS:     137921  HIT:      14042  MISS:     123879
LLC WRITEBACK ACCESS:     634554  HIT:     634488  MISS:         66
LLC TRANSLATION ACCESS:         47  HIT:         11  MISS:         36
LLC PREFETCH  REQUESTED:          0  ISSUED:          0  USEFUL:          0  USELESS:          0
LLC AVERAGE MISS LATENCY: 241.381 cycles

DRAM Statistics
 CHANNEL 0
 RQ ROW_BUFFER_HIT:      64097  ROW_BUFFER_MISS:    1324476
 DBUS AVG_CONGESTED_CYCLE:     3.9581
 WQ ROW_BUFFER_HIT:       1042  ROW_BUFFER_MISS:     545036  FULL:          0


CPU 0 Branch Prediction Accuracy: 81.1279% MPKI: 35.6282 Average ROB Occupancy at Mispredict: 22.1477
Branch type MPKI
BRANCH_DIRECT_JUMP: 0
BRANCH_INDIRECT: 0
BRANCH_CONDITIONAL: 35.6282
BRANCH_DIRECT_CALL: 0
BRANCH_INDIRECT_CALL: 0
BRANCH_RETURN: 0

