
*** ChampSim Multicore Out-of-Order Simulator ***

Warmup Instructions: 25000000
Simulation Instructions: 25000000
Number of CPUs: 1
Off-chip DRAM Size: 4 GiB Channels: 1 Width: 64-bit Data Rate: 3200 MT/s

VirtualMemory physical capacity: 8588881920 num_ppages: 2096895
VirtualMemory page size: 4096 log2_page_size: 12

CPU 0 runs /home/yogo/Documents/clonos/pa2-race-of-prefetchers-template/traces/sssp-3.trace.gz
CPU 0 Bimodal branch predictor
Basic BTB sets: 1024 ways: 8 indirect buffer size: 4096 RAS size: 64
cpu0_L2C Hybrid Stream + IP-based stride prefetcher
WARNING: The extended signature CACHE::prefetch_line(ip, base_addr, pf_addr, fill_this_level, prefetch_metadata) is deprecated.
WARNING: Use CACHE::prefetch_line(pf_addr, fill_this_level, prefetch_metadata) instead.
Heartbeat CPU 0 instructions: 10000002 cycles: 2980524 heartbeat IPC: 3.35512 cumulative IPC: 3.35512 (Simulation time: 0 hr 0 min 39 sec) 
Heartbeat CPU 0 instructions: 20000001 cycles: 6362484 heartbeat IPC: 2.95687 cumulative IPC: 3.14343 (Simulation time: 0 hr 1 min 44 sec) 

Warmup complete CPU 0 instructions: 25000004 cycles: 8127067 (Simulation time: 0 hr 2 min 7 sec) 

Heartbeat CPU 0 instructions: 30000002 cycles: 26759005 heartbeat IPC: 0.49028 cumulative IPC: 0.268356 (Simulation time: 0 hr 2 min 44 sec) 
Heartbeat CPU 0 instructions: 40000001 cycles: 65971765 heartbeat IPC: 0.255019 cumulative IPC: 0.259315 (Simulation time: 0 hr 4 min 1 sec) 
Heartbeat CPU 0 instructions: 50000002 cycles: 104011257 heartbeat IPC: 0.262885 cumulative IPC: 0.260731 (Simulation time: 0 hr 5 min 19 sec) 
Finished CPU 0 instructions: 25000000 cycles: 95884208 cumulative IPC: 0.260731 (Simulation time: 0 hr 5 min 19 sec) 

ChampSim completed all CPUs

Region of Interest Statistics

CPU 0 cumulative IPC: 0.260731 instructions: 25000000 cycles: 95884208
cpu0_DTLB TOTAL     ACCESS:    6314850  HIT:    5877270  MISS:     437580
cpu0_DTLB LOAD      ACCESS:    5890058  HIT:    5609771  MISS:     280287
cpu0_DTLB RFO       ACCESS:     424792  HIT:     267499  MISS:     157293
cpu0_DTLB PREFETCH  ACCESS:          0  HIT:          0  MISS:          0
cpu0_DTLB WRITEBACK ACCESS:          0  HIT:          0  MISS:          0
cpu0_DTLB TRANSLATION ACCESS:          0  HIT:          0  MISS:          0
cpu0_DTLB PREFETCH  REQUESTED:          0  ISSUED:          0  USEFUL:          0  USELESS:          0
cpu0_DTLB AVERAGE MISS LATENCY: 11.4038 cycles
cpu0_ITLB TOTAL     ACCESS:    2383338  HIT:    2383338  MISS:          0
cpu0_ITLB LOAD      ACCESS:    2383338  HIT:    2383338  MISS:          0
cpu0_ITLB RFO       ACCESS:          0  HIT:          0  MISS:          0
cpu0_ITLB PREFETCH  ACCESS:          0  HIT:          0  MISS:          0
cpu0_ITLB WRITEBACK ACCESS:          0  HIT:          0  MISS:          0
cpu0_ITLB TRANSLATION ACCESS:          0  HIT:          0  MISS:          0
cpu0_ITLB PREFETCH  REQUESTED:          0  ISSUED:          0  USEFUL:          0  USELESS:          0
cpu0_ITLB AVERAGE MISS LATENCY: -nan cycles
cpu0_L1I TOTAL     ACCESS:      10709  HIT:      10709  MISS:          0
cpu0_L1I LOAD      ACCESS:      10709  HIT:      10709  MISS:          0
cpu0_L1I RFO       ACCESS:          0  HIT:          0  MISS:          0
cpu0_L1I PREFETCH  ACCESS:          0  HIT:          0  MISS:          0
cpu0_L1I WRITEBACK ACCESS:          0  HIT:          0  MISS:          0
cpu0_L1I TRANSLATION ACCESS:          0  HIT:          0  MISS:          0
cpu0_L1I PREFETCH  REQUESTED:          0  ISSUED:          0  USEFUL:          0  USELESS:          0
cpu0_L1I AVERAGE MISS LATENCY: -nan cycles
cpu0_STLB TOTAL     ACCESS:     437580  HIT:     432150  MISS:       5430
cpu0_STLB LOAD      ACCESS:     280287  HIT:     275602  MISS:       4685
cpu0_STLB RFO       ACCESS:     157293  HIT:     156548  MISS:        745
cpu0_STLB PREFETCH  ACCESS:          0  HIT:          0  MISS:          0
cpu0_STLB WRITEBACK ACCESS:          0  HIT:          0  MISS:          0
cpu0_STLB TRANSLATION ACCESS:          0  HIT:          0  MISS:          0
cpu0_STLB PREFETCH  REQUESTED:          0  ISSUED:          0  USEFUL:          0  USELESS:          0
cpu0_STLB AVERAGE MISS LATENCY: 186.582 cycles
cpu0_L1D TOTAL     ACCESS:    6194911  HIT:    4952728  MISS:    1242183
cpu0_L1D LOAD      ACCESS:    5559324  HIT:    4433534  MISS:    1125790
cpu0_L1D RFO       ACCESS:     630184  HIT:     515740  MISS:     114444
cpu0_L1D PREFETCH  ACCESS:          0  HIT:          0  MISS:          0
cpu0_L1D WRITEBACK ACCESS:          0  HIT:          0  MISS:          0
cpu0_L1D TRANSLATION ACCESS:       5403  HIT:       3454  MISS:       1949
cpu0_L1D PREFETCH  REQUESTED:          0  ISSUED:          0  USEFUL:          0  USELESS:          0
cpu0_L1D AVERAGE MISS LATENCY: 142.855 cycles
cpu0_L2C TOTAL     ACCESS:    4335047  HIT:    2804164  MISS:    1530883
cpu0_L2C LOAD      ACCESS:    1125785  HIT:     114919  MISS:    1010866
cpu0_L2C RFO       ACCESS:     114436  HIT:      71169  MISS:      43267
cpu0_L2C PREFETCH  ACCESS:    2744802  HIT:    2271805  MISS:     472997
cpu0_L2C WRITEBACK ACCESS:     348075  HIT:     344914  MISS:       3161
cpu0_L2C TRANSLATION ACCESS:       1949  HIT:       1357  MISS:        592
cpu0_L2C PREFETCH  REQUESTED:    3265715  ISSUED:    2778771  USEFUL:     360362  USELESS:     112623
cpu0_L2C AVERAGE MISS LATENCY: 130.559 cycles
LLC TOTAL     ACCESS:    1778268  HIT:    1040329  MISS:     737939
LLC LOAD      ACCESS:    1010865  HIT:     395112  MISS:     615753
LLC RFO       ACCESS:      43266  HIT:      16932  MISS:      26334
LLC PREFETCH  ACCESS:     476024  HIT:     382192  MISS:      93832
LLC WRITEBACK ACCESS:     247521  HIT:     245757  MISS:       1764
LLC TRANSLATION ACCESS:        592  HIT:        336  MISS:        256
LLC PREFETCH  REQUESTED:          0  ISSUED:          0  USEFUL:          0  USELESS:          0
LLC AVERAGE MISS LATENCY: 229.708 cycles

DRAM Statistics
 CHANNEL 0
 RQ ROW_BUFFER_HIT:      65975  ROW_BUFFER_MISS:     669741
 DBUS AVG_CONGESTED_CYCLE:    3.95953
 WQ ROW_BUFFER_HIT:      25782  ROW_BUFFER_MISS:     185388  FULL:          0


CPU 0 Branch Prediction Accuracy: 91.1986% MPKI: 12.9566 Average ROB Occupancy at Mispredict: 52.1749
Branch type MPKI
BRANCH_DIRECT_JUMP: 0
BRANCH_INDIRECT: 0
BRANCH_CONDITIONAL: 12.9566
BRANCH_DIRECT_CALL: 0
BRANCH_INDIRECT_CALL: 0
BRANCH_RETURN: 0

