
*** ChampSim Multicore Out-of-Order Simulator ***

Warmup Instructions: 25000000
Simulation Instructions: 25000000
Number of CPUs: 1
Off-chip DRAM Size: 4 GiB Channels: 1 Width: 64-bit Data Rate: 3200 MT/s

VirtualMemory physical capacity: 8588881920 num_ppages: 2096895
VirtualMemory page size: 4096 log2_page_size: 12

CPU 0 runs /home/yogo/Documents/clonos/pa2-race-of-prefetchers-template/traces/sssp-3.trace.gz
CPU 0 Bimodal branch predictor
Basic BTB sets: 1024 ways: 8 indirect buffer size: 4096 RAS size: 64
cpu0_L2C Hybrid Stream + IP-based stride prefetcher
WARNING: The extended signature CACHE::prefetch_line(ip, base_addr, pf_addr, fill_this_level, prefetch_metadata) is deprecated.
WARNING: Use CACHE::prefetch_line(pf_addr, fill_this_level, prefetch_metadata) instead.
Heartbeat CPU 0 instructions: 10000002 cycles: 2980522 heartbeat IPC: 3.35512 cumulative IPC: 3.35512 (Simulation time: 0 hr 0 min 39 sec) 
Heartbeat CPU 0 instructions: 20000001 cycles: 6362475 heartbeat IPC: 2.95687 cumulative IPC: 3.14343 (Simulation time: 0 hr 1 min 49 sec) 

Warmup complete CPU 0 instructions: 25000004 cycles: 8127057 (Simulation time: 0 hr 2 min 29 sec) 

Heartbeat CPU 0 instructions: 30000002 cycles: 26751883 heartbeat IPC: 0.490451 cumulative IPC: 0.268459 (Simulation time: 0 hr 3 min 40 sec) 
Heartbeat CPU 0 instructions: 40000001 cycles: 65859525 heartbeat IPC: 0.255704 cumulative IPC: 0.259819 (Simulation time: 0 hr 5 min 22 sec) 
Heartbeat CPU 0 instructions: 50000002 cycles: 103788134 heartbeat IPC: 0.263653 cumulative IPC: 0.261339 (Simulation time: 0 hr 6 min 42 sec) 
Finished CPU 0 instructions: 25000000 cycles: 95661095 cumulative IPC: 0.261339 (Simulation time: 0 hr 6 min 42 sec) 

ChampSim completed all CPUs

Region of Interest Statistics

CPU 0 cumulative IPC: 0.261339 instructions: 25000000 cycles: 95661095
cpu0_DTLB TOTAL     ACCESS:    6314860  HIT:    5877280  MISS:     437580
cpu0_DTLB LOAD      ACCESS:    5889987  HIT:    5609703  MISS:     280284
cpu0_DTLB RFO       ACCESS:     424873  HIT:     267577  MISS:     157296
cpu0_DTLB PREFETCH  ACCESS:          0  HIT:          0  MISS:          0
cpu0_DTLB WRITEBACK ACCESS:          0  HIT:          0  MISS:          0
cpu0_DTLB TRANSLATION ACCESS:          0  HIT:          0  MISS:          0
cpu0_DTLB PREFETCH  REQUESTED:          0  ISSUED:          0  USEFUL:          0  USELESS:          0
cpu0_DTLB AVERAGE MISS LATENCY: 11.3589 cycles
cpu0_ITLB TOTAL     ACCESS:    2383378  HIT:    2383378  MISS:          0
cpu0_ITLB LOAD      ACCESS:    2383378  HIT:    2383378  MISS:          0
cpu0_ITLB RFO       ACCESS:          0  HIT:          0  MISS:          0
cpu0_ITLB PREFETCH  ACCESS:          0  HIT:          0  MISS:          0
cpu0_ITLB WRITEBACK ACCESS:          0  HIT:          0  MISS:          0
cpu0_ITLB TRANSLATION ACCESS:          0  HIT:          0  MISS:          0
cpu0_ITLB PREFETCH  REQUESTED:          0  ISSUED:          0  USEFUL:          0  USELESS:          0
cpu0_ITLB AVERAGE MISS LATENCY: -nan cycles
cpu0_L1I TOTAL     ACCESS:      10710  HIT:      10710  MISS:          0
cpu0_L1I LOAD      ACCESS:      10710  HIT:      10710  MISS:          0
cpu0_L1I RFO       ACCESS:          0  HIT:          0  MISS:          0
cpu0_L1I PREFETCH  ACCESS:          0  HIT:          0  MISS:          0
cpu0_L1I WRITEBACK ACCESS:          0  HIT:          0  MISS:          0
cpu0_L1I TRANSLATION ACCESS:          0  HIT:          0  MISS:          0
cpu0_L1I PREFETCH  REQUESTED:          0  ISSUED:          0  USEFUL:          0  USELESS:          0
cpu0_L1I AVERAGE MISS LATENCY: -nan cycles
cpu0_STLB TOTAL     ACCESS:     437580  HIT:     432150  MISS:       5430
cpu0_STLB LOAD      ACCESS:     280284  HIT:     275599  MISS:       4685
cpu0_STLB RFO       ACCESS:     157296  HIT:     156551  MISS:        745
cpu0_STLB PREFETCH  ACCESS:          0  HIT:          0  MISS:          0
cpu0_STLB WRITEBACK ACCESS:          0  HIT:          0  MISS:          0
cpu0_STLB TRANSLATION ACCESS:          0  HIT:          0  MISS:          0
cpu0_STLB PREFETCH  REQUESTED:          0  ISSUED:          0  USEFUL:          0  USELESS:          0
cpu0_STLB AVERAGE MISS LATENCY: 182.962 cycles
cpu0_L1D TOTAL     ACCESS:    6194870  HIT:    4952683  MISS:    1242187
cpu0_L1D LOAD      ACCESS:    5559264  HIT:    4433473  MISS:    1125791
cpu0_L1D RFO       ACCESS:     630203  HIT:     515757  MISS:     114446
cpu0_L1D PREFETCH  ACCESS:          0  HIT:          0  MISS:          0
cpu0_L1D WRITEBACK ACCESS:          0  HIT:          0  MISS:          0
cpu0_L1D TRANSLATION ACCESS:       5403  HIT:       3453  MISS:       1950
cpu0_L1D PREFETCH  REQUESTED:          0  ISSUED:          0  USEFUL:          0  USELESS:          0
cpu0_L1D AVERAGE MISS LATENCY: 142.353 cycles
cpu0_L2C TOTAL     ACCESS:    4334197  HIT:    2805762  MISS:    1528435
cpu0_L2C LOAD      ACCESS:    1125787  HIT:     114945  MISS:    1010842
cpu0_L2C RFO       ACCESS:     114439  HIT:      71208  MISS:      43231
cpu0_L2C PREFETCH  ACCESS:    2743943  HIT:    2273422  MISS:     470521
cpu0_L2C WRITEBACK ACCESS:     348078  HIT:     344833  MISS:       3245
cpu0_L2C TRANSLATION ACCESS:       1950  HIT:       1354  MISS:        596
cpu0_L2C PREFETCH  REQUESTED:    3265671  ISSUED:    2778176  USEFUL:     358859  USELESS:     111630
cpu0_L2C AVERAGE MISS LATENCY: 129.948 cycles
LLC TOTAL     ACCESS:    1775765  HIT:    1040107  MISS:     735658
LLC LOAD      ACCESS:    1010842  HIT:     396065  MISS:     614777
LLC RFO       ACCESS:      43231  HIT:      16910  MISS:      26321
LLC PREFETCH  ACCESS:     473493  HIT:     380889  MISS:      92604
LLC WRITEBACK ACCESS:     247603  HIT:     245894  MISS:       1709
LLC TRANSLATION ACCESS:        596  HIT:        349  MISS:        247
LLC PREFETCH  REQUESTED:          0  ISSUED:          0  USEFUL:          0  USELESS:          0
LLC AVERAGE MISS LATENCY: 228.674 cycles

DRAM Statistics
 CHANNEL 0
 RQ ROW_BUFFER_HIT:      54845  ROW_BUFFER_MISS:     678609
 DBUS AVG_CONGESTED_CYCLE:    3.96035
 WQ ROW_BUFFER_HIT:      25584  ROW_BUFFER_MISS:     185451  FULL:          0


CPU 0 Branch Prediction Accuracy: 91.1986% MPKI: 12.9566 Average ROB Occupancy at Mispredict: 52.1763
Branch type MPKI
BRANCH_DIRECT_JUMP: 0
BRANCH_INDIRECT: 0
BRANCH_CONDITIONAL: 12.9566
BRANCH_DIRECT_CALL: 0
BRANCH_INDIRECT_CALL: 0
BRANCH_RETURN: 0

