
*** ChampSim Multicore Out-of-Order Simulator ***

Warmup Instructions: 25000000
Simulation Instructions: 25000000
Number of CPUs: 1
Off-chip DRAM Size: 4 GiB Channels: 1 Width: 64-bit Data Rate: 3200 MT/s

VirtualMemory physical capacity: 8588881920 num_ppages: 2096895
VirtualMemory page size: 4096 log2_page_size: 12

CPU 0 runs /home/ravi/ACA/pa2-race-of-prefetchers-random/Traces/sssp-3.trace.gz
CPU 0 Bimodal branch predictor
Basic BTB sets: 1024 ways: 8 indirect buffer size: 4096 RAS size: 64
Heartbeat CPU 0 instructions: 10000002 cycles: 2980419 heartbeat IPC: 3.35523 cumulative IPC: 3.35523 (Simulation time: 0 hr 0 min 46 sec) 
Heartbeat CPU 0 instructions: 20000001 cycles: 6362371 heartbeat IPC: 2.95687 cumulative IPC: 3.14348 (Simulation time: 0 hr 1 min 42 sec) 

Warmup complete CPU 0 instructions: 25000004 cycles: 8126952 (Simulation time: 0 hr 2 min 16 sec) 

Heartbeat CPU 0 instructions: 30000002 cycles: 25320720 heartbeat IPC: 0.527472 cumulative IPC: 0.290803 (Simulation time: 0 hr 2 min 53 sec) 
Heartbeat CPU 0 instructions: 40000001 cycles: 60193803 heartbeat IPC: 0.286754 cumulative IPC: 0.288091 (Simulation time: 0 hr 4 min 19 sec) 
Heartbeat CPU 0 instructions: 50000002 cycles: 94703842 heartbeat IPC: 0.289771 cumulative IPC: 0.288761 (Simulation time: 0 hr 5 min 36 sec) 
Finished CPU 0 instructions: 25000000 cycles: 86576908 cumulative IPC: 0.288761 (Simulation time: 0 hr 5 min 36 sec) 

ChampSim completed all CPUs

Region of Interest Statistics

CPU 0 cumulative IPC: 0.288761 instructions: 25000000 cycles: 86576908
cpu0_DTLB TOTAL     ACCESS:    6313376  HIT:    5875795  MISS:     437581
cpu0_DTLB LOAD      ACCESS:    5888591  HIT:    5608428  MISS:     280163
cpu0_DTLB RFO       ACCESS:     424785  HIT:     267367  MISS:     157418
cpu0_DTLB PREFETCH  ACCESS:          0  HIT:          0  MISS:          0
cpu0_DTLB WRITEBACK ACCESS:          0  HIT:          0  MISS:          0
cpu0_DTLB TRANSLATION ACCESS:          0  HIT:          0  MISS:          0
cpu0_DTLB PREFETCH  REQUESTED:          0  ISSUED:          0  USEFUL:          0  USELESS:          0
cpu0_DTLB AVERAGE MISS LATENCY: 11.3145 cycles
cpu0_ITLB TOTAL     ACCESS:    2383435  HIT:    2383435  MISS:          0
cpu0_ITLB LOAD      ACCESS:    2383435  HIT:    2383435  MISS:          0
cpu0_ITLB RFO       ACCESS:          0  HIT:          0  MISS:          0
cpu0_ITLB PREFETCH  ACCESS:          0  HIT:          0  MISS:          0
cpu0_ITLB WRITEBACK ACCESS:          0  HIT:          0  MISS:          0
cpu0_ITLB TRANSLATION ACCESS:          0  HIT:          0  MISS:          0
cpu0_ITLB PREFETCH  REQUESTED:          0  ISSUED:          0  USEFUL:          0  USELESS:          0
cpu0_ITLB AVERAGE MISS LATENCY: -nan cycles
cpu0_L1I TOTAL     ACCESS:      10709  HIT:      10709  MISS:          0
cpu0_L1I LOAD      ACCESS:      10709  HIT:      10709  MISS:          0
cpu0_L1I RFO       ACCESS:          0  HIT:          0  MISS:          0
cpu0_L1I PREFETCH  ACCESS:          0  HIT:          0  MISS:          0
cpu0_L1I WRITEBACK ACCESS:          0  HIT:          0  MISS:          0
cpu0_L1I TRANSLATION ACCESS:          0  HIT:          0  MISS:          0
cpu0_L1I PREFETCH  REQUESTED:          0  ISSUED:          0  USEFUL:          0  USELESS:          0
cpu0_L1I AVERAGE MISS LATENCY: -nan cycles
cpu0_STLB TOTAL     ACCESS:     437581  HIT:     432151  MISS:       5430
cpu0_STLB LOAD      ACCESS:     280163  HIT:     275478  MISS:       4685
cpu0_STLB RFO       ACCESS:     157418  HIT:     156673  MISS:        745
cpu0_STLB PREFETCH  ACCESS:          0  HIT:          0  MISS:          0
cpu0_STLB WRITEBACK ACCESS:          0  HIT:          0  MISS:          0
cpu0_STLB TRANSLATION ACCESS:          0  HIT:          0  MISS:          0
cpu0_STLB PREFETCH  REQUESTED:          0  ISSUED:          0  USEFUL:          0  USELESS:          0
cpu0_STLB AVERAGE MISS LATENCY: 179.371 cycles
cpu0_L1D TOTAL     ACCESS:    6193474  HIT:    4951290  MISS:    1242184
cpu0_L1D LOAD      ACCESS:    5558131  HIT:    4432344  MISS:    1125787
cpu0_L1D RFO       ACCESS:     629940  HIT:     515493  MISS:     114447
cpu0_L1D PREFETCH  ACCESS:          0  HIT:          0  MISS:          0
cpu0_L1D WRITEBACK ACCESS:          0  HIT:          0  MISS:          0
cpu0_L1D TRANSLATION ACCESS:       5403  HIT:       3453  MISS:       1950
cpu0_L1D PREFETCH  REQUESTED:          0  ISSUED:          0  USEFUL:          0  USELESS:          0
cpu0_L1D AVERAGE MISS LATENCY: 116.996 cycles
cpu0_L2C TOTAL     ACCESS:    1590249  HIT:     626207  MISS:     964042
cpu0_L2C LOAD      ACCESS:    1125781  HIT:     198379  MISS:     927402
cpu0_L2C RFO       ACCESS:     114441  HIT:      79504  MISS:      34937
cpu0_L2C PREFETCH  ACCESS:          0  HIT:          0  MISS:          0
cpu0_L2C WRITEBACK ACCESS:     348077  HIT:     346859  MISS:       1218
cpu0_L2C TRANSLATION ACCESS:       1950  HIT:       1465  MISS:        485
cpu0_L2C PREFETCH  REQUESTED:          0  ISSUED:          0  USEFUL:          0  USELESS:          0
cpu0_L2C AVERAGE MISS LATENCY: 136.262 cycles
LLC TOTAL     ACCESS:    1196789  HIT:     636930  MISS:     559859
LLC LOAD      ACCESS:     927401  HIT:     394766  MISS:     532635
LLC RFO       ACCESS:      34937  HIT:       9538  MISS:      25399
LLC PREFETCH  ACCESS:          0  HIT:          0  MISS:          0
LLC WRITEBACK ACCESS:     233966  HIT:     232362  MISS:       1604
LLC TRANSLATION ACCESS:        485  HIT:        264  MISS:        221
LLC PREFETCH  REQUESTED:          0  ISSUED:          0  USEFUL:          0  USELESS:          0
LLC AVERAGE MISS LATENCY: 198.51 cycles

DRAM Statistics
 CHANNEL 0
 RQ ROW_BUFFER_HIT:      46495  ROW_BUFFER_MISS:     511514
 DBUS AVG_CONGESTED_CYCLE:    3.94475
 WQ ROW_BUFFER_HIT:      55631  ROW_BUFFER_MISS:     145204  FULL:          0


CPU 0 Branch Prediction Accuracy: 91.1986% MPKI: 12.9566 Average ROB Occupancy at Mispredict: 52.2171
Branch type MPKI
BRANCH_DIRECT_JUMP: 0
BRANCH_INDIRECT: 0
BRANCH_CONDITIONAL: 12.9566
BRANCH_DIRECT_CALL: 0
BRANCH_INDIRECT_CALL: 0
BRANCH_RETURN: 0

