
*** ChampSim Multicore Out-of-Order Simulator ***

Warmup Instructions: 25000000
Simulation Instructions: 25000000
Number of CPUs: 1
Off-chip DRAM Size: 4 GiB Channels: 1 Width: 64-bit Data Rate: 3200 MT/s

VirtualMemory physical capacity: 8588881920 num_ppages: 2096895
VirtualMemory page size: 4096 log2_page_size: 12

CPU 0 runs /home/yogo/Documents/clonos/pa2-race-of-prefetchers-template/traces/sssp-3.trace.gz
CPU 0 Bimodal branch predictor
Basic BTB sets: 1024 ways: 8 indirect buffer size: 4096 RAS size: 64
cpu0_L2C Hybrid Stream + IP-based stride prefetcher
WARNING: The extended signature CACHE::prefetch_line(ip, base_addr, pf_addr, fill_this_level, prefetch_metadata) is deprecated.
WARNING: Use CACHE::prefetch_line(pf_addr, fill_this_level, prefetch_metadata) instead.
Heartbeat CPU 0 instructions: 10000002 cycles: 2980546 heartbeat IPC: 3.35509 cumulative IPC: 3.35509 (Simulation time: 0 hr 0 min 55 sec) 
Heartbeat CPU 0 instructions: 20000001 cycles: 6362504 heartbeat IPC: 2.95687 cumulative IPC: 3.14342 (Simulation time: 0 hr 1 min 42 sec) 

Warmup complete CPU 0 instructions: 25000004 cycles: 8127084 (Simulation time: 0 hr 2 min 5 sec) 

Heartbeat CPU 0 instructions: 30000002 cycles: 27147220 heartbeat IPC: 0.481123 cumulative IPC: 0.262879 (Simulation time: 0 hr 2 min 44 sec) 
Heartbeat CPU 0 instructions: 40000001 cycles: 67413355 heartbeat IPC: 0.248348 cumulative IPC: 0.25301 (Simulation time: 0 hr 4 min 3 sec) 
Heartbeat CPU 0 instructions: 50000002 cycles: 106338836 heartbeat IPC: 0.256901 cumulative IPC: 0.254552 (Simulation time: 0 hr 5 min 23 sec) 
Finished CPU 0 instructions: 25000000 cycles: 98211770 cumulative IPC: 0.254552 (Simulation time: 0 hr 5 min 23 sec) 

ChampSim completed all CPUs

Region of Interest Statistics

CPU 0 cumulative IPC: 0.254552 instructions: 25000000 cycles: 98211770
cpu0_DTLB TOTAL     ACCESS:    6315293  HIT:    5877715  MISS:     437578
cpu0_DTLB LOAD      ACCESS:    5890482  HIT:    5610167  MISS:     280315
cpu0_DTLB RFO       ACCESS:     424811  HIT:     267548  MISS:     157263
cpu0_DTLB PREFETCH  ACCESS:          0  HIT:          0  MISS:          0
cpu0_DTLB WRITEBACK ACCESS:          0  HIT:          0  MISS:          0
cpu0_DTLB TRANSLATION ACCESS:          0  HIT:          0  MISS:          0
cpu0_DTLB PREFETCH  REQUESTED:          0  ISSUED:          0  USEFUL:          0  USELESS:          0
cpu0_DTLB AVERAGE MISS LATENCY: 11.4249 cycles
cpu0_ITLB TOTAL     ACCESS:    2383300  HIT:    2383300  MISS:          0
cpu0_ITLB LOAD      ACCESS:    2383300  HIT:    2383300  MISS:          0
cpu0_ITLB RFO       ACCESS:          0  HIT:          0  MISS:          0
cpu0_ITLB PREFETCH  ACCESS:          0  HIT:          0  MISS:          0
cpu0_ITLB WRITEBACK ACCESS:          0  HIT:          0  MISS:          0
cpu0_ITLB TRANSLATION ACCESS:          0  HIT:          0  MISS:          0
cpu0_ITLB PREFETCH  REQUESTED:          0  ISSUED:          0  USEFUL:          0  USELESS:          0
cpu0_ITLB AVERAGE MISS LATENCY: -nan cycles
cpu0_L1I TOTAL     ACCESS:      10709  HIT:      10709  MISS:          0
cpu0_L1I LOAD      ACCESS:      10709  HIT:      10709  MISS:          0
cpu0_L1I RFO       ACCESS:          0  HIT:          0  MISS:          0
cpu0_L1I PREFETCH  ACCESS:          0  HIT:          0  MISS:          0
cpu0_L1I WRITEBACK ACCESS:          0  HIT:          0  MISS:          0
cpu0_L1I TRANSLATION ACCESS:          0  HIT:          0  MISS:          0
cpu0_L1I PREFETCH  REQUESTED:          0  ISSUED:          0  USEFUL:          0  USELESS:          0
cpu0_L1I AVERAGE MISS LATENCY: -nan cycles
cpu0_STLB TOTAL     ACCESS:     437578  HIT:     432148  MISS:       5430
cpu0_STLB LOAD      ACCESS:     280315  HIT:     275630  MISS:       4685
cpu0_STLB RFO       ACCESS:     157263  HIT:     156518  MISS:        745
cpu0_STLB PREFETCH  ACCESS:          0  HIT:          0  MISS:          0
cpu0_STLB WRITEBACK ACCESS:          0  HIT:          0  MISS:          0
cpu0_STLB TRANSLATION ACCESS:          0  HIT:          0  MISS:          0
cpu0_STLB PREFETCH  REQUESTED:          0  ISSUED:          0  USEFUL:          0  USELESS:          0
cpu0_STLB AVERAGE MISS LATENCY: 188.285 cycles
cpu0_L1D TOTAL     ACCESS:    6195304  HIT:    4953112  MISS:    1242192
cpu0_L1D LOAD      ACCESS:    5559755  HIT:    4433960  MISS:    1125795
cpu0_L1D RFO       ACCESS:     630146  HIT:     515699  MISS:     114447
cpu0_L1D PREFETCH  ACCESS:          0  HIT:          0  MISS:          0
cpu0_L1D WRITEBACK ACCESS:          0  HIT:          0  MISS:          0
cpu0_L1D TRANSLATION ACCESS:       5403  HIT:       3453  MISS:       1950
cpu0_L1D PREFETCH  REQUESTED:          0  ISSUED:          0  USEFUL:          0  USELESS:          0
cpu0_L1D AVERAGE MISS LATENCY: 149.725 cycles
cpu0_L2C TOTAL     ACCESS:    4973062  HIT:    3244769  MISS:    1728293
cpu0_L2C LOAD      ACCESS:    1125791  HIT:     100886  MISS:    1024905
cpu0_L2C RFO       ACCESS:     114439  HIT:      68953  MISS:      45486
cpu0_L2C PREFETCH  ACCESS:    3382802  HIT:    2729438  MISS:     653364
cpu0_L2C WRITEBACK ACCESS:     348080  HIT:     344166  MISS:       3914
cpu0_L2C TRANSLATION ACCESS:       1950  HIT:       1326  MISS:        624
cpu0_L2C PREFETCH  REQUESTED:    3956602  ISSUED:    3430231  USEFUL:     487227  USELESS:     166210
cpu0_L2C AVERAGE MISS LATENCY: 128.613 cycles
LLC TOTAL     ACCESS:    1981208  HIT:    1193457  MISS:     787751
LLC LOAD      ACCESS:    1024904  HIT:     388506  MISS:     636398
LLC RFO       ACCESS:      45486  HIT:      18895  MISS:      26591
LLC PREFETCH  ACCESS:     659004  HIT:     536400  MISS:     122604
LLC WRITEBACK ACCESS:     251190  HIT:     249300  MISS:       1890
LLC TRANSLATION ACCESS:        624  HIT:        356  MISS:        268
LLC PREFETCH  REQUESTED:          0  ISSUED:          0  USEFUL:          0  USELESS:          0
LLC AVERAGE MISS LATENCY: 240.008 cycles

DRAM Statistics
 CHANNEL 0
 RQ ROW_BUFFER_HIT:      80119  ROW_BUFFER_MISS:     705234
 DBUS AVG_CONGESTED_CYCLE:     3.9619
 WQ ROW_BUFFER_HIT:      20076  ROW_BUFFER_MISS:     193124  FULL:          0


CPU 0 Branch Prediction Accuracy: 91.1986% MPKI: 12.9566 Average ROB Occupancy at Mispredict: 52.1716
Branch type MPKI
BRANCH_DIRECT_JUMP: 0
BRANCH_INDIRECT: 0
BRANCH_CONDITIONAL: 12.9566
BRANCH_DIRECT_CALL: 0
BRANCH_INDIRECT_CALL: 0
BRANCH_RETURN: 0

