
*** ChampSim Multicore Out-of-Order Simulator ***

Warmup Instructions: 25000000
Simulation Instructions: 25000000
Number of CPUs: 1
Off-chip DRAM Size: 4 GiB Channels: 1 Width: 64-bit Data Rate: 3200 MT/s

VirtualMemory physical capacity: 8588881920 num_ppages: 2096895
VirtualMemory page size: 4096 log2_page_size: 12

CPU 0 runs /home/yogo/Documents/clonos/pa2-race-of-prefetchers-template/traces/sssp-3.trace.gz
CPU 0 Bimodal branch predictor
Basic BTB sets: 1024 ways: 8 indirect buffer size: 4096 RAS size: 64
cpu0_L2C Hybrid Stream + IP-based stride prefetcher
WARNING: The extended signature CACHE::prefetch_line(ip, base_addr, pf_addr, fill_this_level, prefetch_metadata) is deprecated.
WARNING: Use CACHE::prefetch_line(pf_addr, fill_this_level, prefetch_metadata) instead.
Heartbeat CPU 0 instructions: 10000002 cycles: 2980539 heartbeat IPC: 3.3551 cumulative IPC: 3.3551 (Simulation time: 0 hr 1 min 0 sec) 
Heartbeat CPU 0 instructions: 20000001 cycles: 6362493 heartbeat IPC: 2.95687 cumulative IPC: 3.14342 (Simulation time: 0 hr 2 min 1 sec) 

Warmup complete CPU 0 instructions: 25000004 cycles: 8127078 (Simulation time: 0 hr 2 min 44 sec) 

Heartbeat CPU 0 instructions: 30000002 cycles: 27087083 heartbeat IPC: 0.482519 cumulative IPC: 0.263713 (Simulation time: 0 hr 3 min 56 sec) 
Heartbeat CPU 0 instructions: 40000001 cycles: 67177380 heartbeat IPC: 0.249437 cumulative IPC: 0.254021 (Simulation time: 0 hr 5 min 16 sec) 
Heartbeat CPU 0 instructions: 50000002 cycles: 105908759 heartbeat IPC: 0.258189 cumulative IPC: 0.255672 (Simulation time: 0 hr 6 min 37 sec) 
Finished CPU 0 instructions: 25000000 cycles: 97781699 cumulative IPC: 0.255672 (Simulation time: 0 hr 6 min 37 sec) 

ChampSim completed all CPUs

Region of Interest Statistics

CPU 0 cumulative IPC: 0.255672 instructions: 25000000 cycles: 97781699
cpu0_DTLB TOTAL     ACCESS:    6315337  HIT:    5877756  MISS:     437581
cpu0_DTLB LOAD      ACCESS:    5890472  HIT:    5610159  MISS:     280313
cpu0_DTLB RFO       ACCESS:     424865  HIT:     267597  MISS:     157268
cpu0_DTLB PREFETCH  ACCESS:          0  HIT:          0  MISS:          0
cpu0_DTLB WRITEBACK ACCESS:          0  HIT:          0  MISS:          0
cpu0_DTLB TRANSLATION ACCESS:          0  HIT:          0  MISS:          0
cpu0_DTLB PREFETCH  REQUESTED:          0  ISSUED:          0  USEFUL:          0  USELESS:          0
cpu0_DTLB AVERAGE MISS LATENCY: 11.3685 cycles
cpu0_ITLB TOTAL     ACCESS:    2383350  HIT:    2383350  MISS:          0
cpu0_ITLB LOAD      ACCESS:    2383350  HIT:    2383350  MISS:          0
cpu0_ITLB RFO       ACCESS:          0  HIT:          0  MISS:          0
cpu0_ITLB PREFETCH  ACCESS:          0  HIT:          0  MISS:          0
cpu0_ITLB WRITEBACK ACCESS:          0  HIT:          0  MISS:          0
cpu0_ITLB TRANSLATION ACCESS:          0  HIT:          0  MISS:          0
cpu0_ITLB PREFETCH  REQUESTED:          0  ISSUED:          0  USEFUL:          0  USELESS:          0
cpu0_ITLB AVERAGE MISS LATENCY: -nan cycles
cpu0_L1I TOTAL     ACCESS:      10708  HIT:      10708  MISS:          0
cpu0_L1I LOAD      ACCESS:      10708  HIT:      10708  MISS:          0
cpu0_L1I RFO       ACCESS:          0  HIT:          0  MISS:          0
cpu0_L1I PREFETCH  ACCESS:          0  HIT:          0  MISS:          0
cpu0_L1I WRITEBACK ACCESS:          0  HIT:          0  MISS:          0
cpu0_L1I TRANSLATION ACCESS:          0  HIT:          0  MISS:          0
cpu0_L1I PREFETCH  REQUESTED:          0  ISSUED:          0  USEFUL:          0  USELESS:          0
cpu0_L1I AVERAGE MISS LATENCY: -nan cycles
cpu0_STLB TOTAL     ACCESS:     437581  HIT:     432151  MISS:       5430
cpu0_STLB LOAD      ACCESS:     280313  HIT:     275628  MISS:       4685
cpu0_STLB RFO       ACCESS:     157268  HIT:     156523  MISS:        745
cpu0_STLB PREFETCH  ACCESS:          0  HIT:          0  MISS:          0
cpu0_STLB WRITEBACK ACCESS:          0  HIT:          0  MISS:          0
cpu0_STLB TRANSLATION ACCESS:          0  HIT:          0  MISS:          0
cpu0_STLB PREFETCH  REQUESTED:          0  ISSUED:          0  USEFUL:          0  USELESS:          0
cpu0_STLB AVERAGE MISS LATENCY: 183.739 cycles
cpu0_L1D TOTAL     ACCESS:    6195285  HIT:    4953098  MISS:    1242187
cpu0_L1D LOAD      ACCESS:    5559639  HIT:    4433848  MISS:    1125791
cpu0_L1D RFO       ACCESS:     630245  HIT:     515800  MISS:     114445
cpu0_L1D PREFETCH  ACCESS:          0  HIT:          0  MISS:          0
cpu0_L1D WRITEBACK ACCESS:          0  HIT:          0  MISS:          0
cpu0_L1D TRANSLATION ACCESS:       5401  HIT:       3450  MISS:       1951
cpu0_L1D PREFETCH  REQUESTED:          0  ISSUED:          0  USEFUL:          0  USELESS:          0
cpu0_L1D AVERAGE MISS LATENCY: 148.396 cycles
cpu0_L2C TOTAL     ACCESS:    4971820  HIT:    3248525  MISS:    1723295
cpu0_L2C LOAD      ACCESS:    1125787  HIT:     100963  MISS:    1024824
cpu0_L2C RFO       ACCESS:     114438  HIT:      69056  MISS:      45382
cpu0_L2C PREFETCH  ACCESS:    3381569  HIT:    2733107  MISS:     648462
cpu0_L2C WRITEBACK ACCESS:     348075  HIT:     344092  MISS:       3983
cpu0_L2C TRANSLATION ACCESS:       1951  HIT:       1307  MISS:        644
cpu0_L2C PREFETCH  REQUESTED:    3956244  ISSUED:    3429242  USEFUL:     484019  USELESS:     164502
cpu0_L2C AVERAGE MISS LATENCY: 127.159 cycles
LLC TOTAL     ACCESS:    1975923  HIT:    1191940  MISS:     783983
LLC LOAD      ACCESS:    1024823  HIT:     389587  MISS:     635236
LLC RFO       ACCESS:      45382  HIT:      18819  MISS:      26563
LLC PREFETCH  ACCESS:     653850  HIT:     533696  MISS:     120154
LLC WRITEBACK ACCESS:     251224  HIT:     249453  MISS:       1771
LLC TRANSLATION ACCESS:        644  HIT:        385  MISS:        259
LLC PREFETCH  REQUESTED:          0  ISSUED:          0  USEFUL:          0  USELESS:          0
LLC AVERAGE MISS LATENCY: 236.879 cycles

DRAM Statistics
 CHANNEL 0
 RQ ROW_BUFFER_HIT:      60631  ROW_BUFFER_MISS:     721110
 DBUS AVG_CONGESTED_CYCLE:    3.96164
 WQ ROW_BUFFER_HIT:      21936  ROW_BUFFER_MISS:     190991  FULL:          0


CPU 0 Branch Prediction Accuracy: 91.1986% MPKI: 12.9566 Average ROB Occupancy at Mispredict: 52.1709
Branch type MPKI
BRANCH_DIRECT_JUMP: 0
BRANCH_INDIRECT: 0
BRANCH_CONDITIONAL: 12.9566
BRANCH_DIRECT_CALL: 0
BRANCH_INDIRECT_CALL: 0
BRANCH_RETURN: 0

