
*** ChampSim Multicore Out-of-Order Simulator ***

Warmup Instructions: 25000000
Simulation Instructions: 25000000
Number of CPUs: 1
Off-chip DRAM Size: 4 GiB Channels: 1 Width: 64-bit Data Rate: 3200 MT/s

VirtualMemory physical capacity: 8588881920 num_ppages: 2096895
VirtualMemory page size: 4096 log2_page_size: 12

CPU 0 runs /home/yogo/Documents/clonos/pa2-race-of-prefetchers-template/traces/sssp-3.trace.gz
CPU 0 Bimodal branch predictor
Basic BTB sets: 1024 ways: 8 indirect buffer size: 4096 RAS size: 64
cpu0_L2C Hybrid Stream + IP-based stride prefetcher
WARNING: The extended signature CACHE::prefetch_line(ip, base_addr, pf_addr, fill_this_level, prefetch_metadata) is deprecated.
WARNING: Use CACHE::prefetch_line(pf_addr, fill_this_level, prefetch_metadata) instead.
Heartbeat CPU 0 instructions: 10000002 cycles: 2980511 heartbeat IPC: 3.35513 cumulative IPC: 3.35513 (Simulation time: 0 hr 0 min 45 sec) 
Heartbeat CPU 0 instructions: 20000001 cycles: 6362469 heartbeat IPC: 2.95687 cumulative IPC: 3.14343 (Simulation time: 0 hr 1 min 34 sec) 

Warmup complete CPU 0 instructions: 25000004 cycles: 8127050 (Simulation time: 0 hr 1 min 59 sec) 

Heartbeat CPU 0 instructions: 30000002 cycles: 26493988 heartbeat IPC: 0.496734 cumulative IPC: 0.272228 (Simulation time: 0 hr 3 min 7 sec) 
Heartbeat CPU 0 instructions: 40000001 cycles: 65073515 heartbeat IPC: 0.259205 cumulative IPC: 0.263405 (Simulation time: 0 hr 5 min 29 sec) 
Heartbeat CPU 0 instructions: 50000002 cycles: 102557957 heartbeat IPC: 0.266777 cumulative IPC: 0.264744 (Simulation time: 0 hr 6 min 48 sec) 
Finished CPU 0 instructions: 25000000 cycles: 94430925 cumulative IPC: 0.264744 (Simulation time: 0 hr 6 min 48 sec) 

ChampSim completed all CPUs

Region of Interest Statistics

CPU 0 cumulative IPC: 0.264744 instructions: 25000000 cycles: 94430925
cpu0_DTLB TOTAL     ACCESS:    6314559  HIT:    5876977  MISS:     437582
cpu0_DTLB LOAD      ACCESS:    5889709  HIT:    5609448  MISS:     280261
cpu0_DTLB RFO       ACCESS:     424850  HIT:     267529  MISS:     157321
cpu0_DTLB PREFETCH  ACCESS:          0  HIT:          0  MISS:          0
cpu0_DTLB WRITEBACK ACCESS:          0  HIT:          0  MISS:          0
cpu0_DTLB TRANSLATION ACCESS:          0  HIT:          0  MISS:          0
cpu0_DTLB PREFETCH  REQUESTED:          0  ISSUED:          0  USEFUL:          0  USELESS:          0
cpu0_DTLB AVERAGE MISS LATENCY: 11.3582 cycles
cpu0_ITLB TOTAL     ACCESS:    2383361  HIT:    2383361  MISS:          0
cpu0_ITLB LOAD      ACCESS:    2383361  HIT:    2383361  MISS:          0
cpu0_ITLB RFO       ACCESS:          0  HIT:          0  MISS:          0
cpu0_ITLB PREFETCH  ACCESS:          0  HIT:          0  MISS:          0
cpu0_ITLB WRITEBACK ACCESS:          0  HIT:          0  MISS:          0
cpu0_ITLB TRANSLATION ACCESS:          0  HIT:          0  MISS:          0
cpu0_ITLB PREFETCH  REQUESTED:          0  ISSUED:          0  USEFUL:          0  USELESS:          0
cpu0_ITLB AVERAGE MISS LATENCY: -nan cycles
cpu0_L1I TOTAL     ACCESS:      10708  HIT:      10708  MISS:          0
cpu0_L1I LOAD      ACCESS:      10708  HIT:      10708  MISS:          0
cpu0_L1I RFO       ACCESS:          0  HIT:          0  MISS:          0
cpu0_L1I PREFETCH  ACCESS:          0  HIT:          0  MISS:          0
cpu0_L1I WRITEBACK ACCESS:          0  HIT:          0  MISS:          0
cpu0_L1I TRANSLATION ACCESS:          0  HIT:          0  MISS:          0
cpu0_L1I PREFETCH  REQUESTED:          0  ISSUED:          0  USEFUL:          0  USELESS:          0
cpu0_L1I AVERAGE MISS LATENCY: -nan cycles
cpu0_STLB TOTAL     ACCESS:     437582  HIT:     432152  MISS:       5430
cpu0_STLB LOAD      ACCESS:     280261  HIT:     275576  MISS:       4685
cpu0_STLB RFO       ACCESS:     157321  HIT:     156576  MISS:        745
cpu0_STLB PREFETCH  ACCESS:          0  HIT:          0  MISS:          0
cpu0_STLB WRITEBACK ACCESS:          0  HIT:          0  MISS:          0
cpu0_STLB TRANSLATION ACCESS:          0  HIT:          0  MISS:          0
cpu0_STLB PREFETCH  REQUESTED:          0  ISSUED:          0  USEFUL:          0  USELESS:          0
cpu0_STLB AVERAGE MISS LATENCY: 182.898 cycles
cpu0_L1D TOTAL     ACCESS:    6194773  HIT:    4952584  MISS:    1242189
cpu0_L1D LOAD      ACCESS:    5559195  HIT:    4433402  MISS:    1125793
cpu0_L1D RFO       ACCESS:     630175  HIT:     515730  MISS:     114445
cpu0_L1D PREFETCH  ACCESS:          0  HIT:          0  MISS:          0
cpu0_L1D WRITEBACK ACCESS:          0  HIT:          0  MISS:          0
cpu0_L1D TRANSLATION ACCESS:       5403  HIT:       3452  MISS:       1951
cpu0_L1D PREFETCH  REQUESTED:          0  ISSUED:          0  USEFUL:          0  USELESS:          0
cpu0_L1D AVERAGE MISS LATENCY: 138.27 cycles
cpu0_L2C TOTAL     ACCESS:    3691879  HIT:    2323318  MISS:    1368561
cpu0_L2C LOAD      ACCESS:    1125788  HIT:     130698  MISS:     995090
cpu0_L2C RFO       ACCESS:     114437  HIT:      73241  MISS:      41196
cpu0_L2C PREFETCH  ACCESS:    2101626  HIT:    1772481  MISS:     329145
cpu0_L2C WRITEBACK ACCESS:     348077  HIT:     345495  MISS:       2582
cpu0_L2C TRANSLATION ACCESS:       1951  HIT:       1403  MISS:        548
cpu0_L2C PREFETCH  REQUESTED:    2565535  ISSUED:    2127344  USEFUL:     251000  USELESS:      78097
cpu0_L2C AVERAGE MISS LATENCY: 136.615 cycles
LLC TOTAL     ACCESS:    1611787  HIT:     901111  MISS:     710676
LLC LOAD      ACCESS:     995090  HIT:     394813  MISS:     600277
LLC RFO       ACCESS:      41196  HIT:      15068  MISS:      26128
LLC PREFETCH  ACCESS:     330714  HIT:     248415  MISS:      82299
LLC WRITEBACK ACCESS:     244239  HIT:     242516  MISS:       1723
LLC TRANSLATION ACCESS:        548  HIT:        299  MISS:        249
LLC PREFETCH  REQUESTED:          0  ISSUED:          0  USEFUL:          0  USELESS:          0
LLC AVERAGE MISS LATENCY: 224.137 cycles

DRAM Statistics
 CHANNEL 0
 RQ ROW_BUFFER_HIT:      56122  ROW_BUFFER_MISS:     652399
 DBUS AVG_CONGESTED_CYCLE:    3.95853
 WQ ROW_BUFFER_HIT:      27629  ROW_BUFFER_MISS:     181946  FULL:          0


CPU 0 Branch Prediction Accuracy: 91.1986% MPKI: 12.9566 Average ROB Occupancy at Mispredict: 52.1831
Branch type MPKI
BRANCH_DIRECT_JUMP: 0
BRANCH_INDIRECT: 0
BRANCH_CONDITIONAL: 12.9566
BRANCH_DIRECT_CALL: 0
BRANCH_INDIRECT_CALL: 0
BRANCH_RETURN: 0

