
*** ChampSim Multicore Out-of-Order Simulator ***

Warmup Instructions: 25000000
Simulation Instructions: 25000000
Number of CPUs: 1
Off-chip DRAM Size: 4 GiB Channels: 1 Width: 64-bit Data Rate: 3200 MT/s

VirtualMemory physical capacity: 8588881920 num_ppages: 2096895
VirtualMemory page size: 4096 log2_page_size: 12

CPU 0 runs /home/yogo/Documents/clonos/pa2-race-of-prefetchers-template/traces/sssp-3.trace.gz
CPU 0 Bimodal branch predictor
Basic BTB sets: 1024 ways: 8 indirect buffer size: 4096 RAS size: 64
cpu0_L2C Hybrid Stream + IP-based stride prefetcher
WARNING: The extended signature CACHE::prefetch_line(ip, base_addr, pf_addr, fill_this_level, prefetch_metadata) is deprecated.
WARNING: Use CACHE::prefetch_line(pf_addr, fill_this_level, prefetch_metadata) instead.
Heartbeat CPU 0 instructions: 10000002 cycles: 2980573 heartbeat IPC: 3.35506 cumulative IPC: 3.35506 (Simulation time: 0 hr 0 min 42 sec) 
Heartbeat CPU 0 instructions: 20000001 cycles: 6362527 heartbeat IPC: 2.95687 cumulative IPC: 3.14341 (Simulation time: 0 hr 1 min 39 sec) 

Warmup complete CPU 0 instructions: 25000004 cycles: 8127111 (Simulation time: 0 hr 2 min 19 sec) 

Heartbeat CPU 0 instructions: 30000002 cycles: 27390439 heartbeat IPC: 0.475558 cumulative IPC: 0.25956 (Simulation time: 0 hr 3 min 2 sec) 
Heartbeat CPU 0 instructions: 40000001 cycles: 68114023 heartbeat IPC: 0.245558 cumulative IPC: 0.250055 (Simulation time: 0 hr 4 min 23 sec) 
Heartbeat CPU 0 instructions: 50000002 cycles: 107405444 heartbeat IPC: 0.254508 cumulative IPC: 0.251817 (Simulation time: 0 hr 5 min 44 sec) 
Finished CPU 0 instructions: 25000000 cycles: 99278351 cumulative IPC: 0.251817 (Simulation time: 0 hr 5 min 44 sec) 

ChampSim completed all CPUs

Region of Interest Statistics

CPU 0 cumulative IPC: 0.251817 instructions: 25000000 cycles: 99278351
cpu0_DTLB TOTAL     ACCESS:    6315886  HIT:    5878307  MISS:     437579
cpu0_DTLB LOAD      ACCESS:    5891065  HIT:    5610725  MISS:     280340
cpu0_DTLB RFO       ACCESS:     424821  HIT:     267582  MISS:     157239
cpu0_DTLB PREFETCH  ACCESS:          0  HIT:          0  MISS:          0
cpu0_DTLB WRITEBACK ACCESS:          0  HIT:          0  MISS:          0
cpu0_DTLB TRANSLATION ACCESS:          0  HIT:          0  MISS:          0
cpu0_DTLB PREFETCH  REQUESTED:          0  ISSUED:          0  USEFUL:          0  USELESS:          0
cpu0_DTLB AVERAGE MISS LATENCY: 11.3788 cycles
cpu0_ITLB TOTAL     ACCESS:    2383346  HIT:    2383346  MISS:          0
cpu0_ITLB LOAD      ACCESS:    2383346  HIT:    2383346  MISS:          0
cpu0_ITLB RFO       ACCESS:          0  HIT:          0  MISS:          0
cpu0_ITLB PREFETCH  ACCESS:          0  HIT:          0  MISS:          0
cpu0_ITLB WRITEBACK ACCESS:          0  HIT:          0  MISS:          0
cpu0_ITLB TRANSLATION ACCESS:          0  HIT:          0  MISS:          0
cpu0_ITLB PREFETCH  REQUESTED:          0  ISSUED:          0  USEFUL:          0  USELESS:          0
cpu0_ITLB AVERAGE MISS LATENCY: -nan cycles
cpu0_L1I TOTAL     ACCESS:      10709  HIT:      10709  MISS:          0
cpu0_L1I LOAD      ACCESS:      10709  HIT:      10709  MISS:          0
cpu0_L1I RFO       ACCESS:          0  HIT:          0  MISS:          0
cpu0_L1I PREFETCH  ACCESS:          0  HIT:          0  MISS:          0
cpu0_L1I WRITEBACK ACCESS:          0  HIT:          0  MISS:          0
cpu0_L1I TRANSLATION ACCESS:          0  HIT:          0  MISS:          0
cpu0_L1I PREFETCH  REQUESTED:          0  ISSUED:          0  USEFUL:          0  USELESS:          0
cpu0_L1I AVERAGE MISS LATENCY: -nan cycles
cpu0_STLB TOTAL     ACCESS:     437579  HIT:     432149  MISS:       5430
cpu0_STLB LOAD      ACCESS:     280340  HIT:     275654  MISS:       4686
cpu0_STLB RFO       ACCESS:     157239  HIT:     156495  MISS:        744
cpu0_STLB PREFETCH  ACCESS:          0  HIT:          0  MISS:          0
cpu0_STLB WRITEBACK ACCESS:          0  HIT:          0  MISS:          0
cpu0_STLB TRANSLATION ACCESS:          0  HIT:          0  MISS:          0
cpu0_STLB PREFETCH  REQUESTED:          0  ISSUED:          0  USEFUL:          0  USELESS:          0
cpu0_STLB AVERAGE MISS LATENCY: 184.572 cycles
cpu0_L1D TOTAL     ACCESS:    6195506  HIT:    4953317  MISS:    1242189
cpu0_L1D LOAD      ACCESS:    5559963  HIT:    4434170  MISS:    1125793
cpu0_L1D RFO       ACCESS:     630142  HIT:     515697  MISS:     114445
cpu0_L1D PREFETCH  ACCESS:          0  HIT:          0  MISS:          0
cpu0_L1D WRITEBACK ACCESS:          0  HIT:          0  MISS:          0
cpu0_L1D TRANSLATION ACCESS:       5401  HIT:       3450  MISS:       1951
cpu0_L1D PREFETCH  REQUESTED:          0  ISSUED:          0  USEFUL:          0  USELESS:          0
cpu0_L1D AVERAGE MISS LATENCY: 152.912 cycles
cpu0_L2C TOTAL     ACCESS:    5599488  HIT:    3684753  MISS:    1914735
cpu0_L2C LOAD      ACCESS:    1125789  HIT:      89651  MISS:    1036138
cpu0_L2C RFO       ACCESS:     114439  HIT:      67083  MISS:      47356
cpu0_L2C PREFETCH  ACCESS:    4009233  HIT:    3183555  MISS:     825678
cpu0_L2C WRITEBACK ACCESS:     348076  HIT:     343191  MISS:       4885
cpu0_L2C TRANSLATION ACCESS:       1951  HIT:       1273  MISS:        678
cpu0_L2C PREFETCH  REQUESTED:    4637708  ISSUED:    4069850  USEFUL:     607094  USELESS:     218765
cpu0_L2C AVERAGE MISS LATENCY: 122.161 cycles
LLC TOTAL     ACCESS:    2173168  HIT:    1358829  MISS:     814339
LLC LOAD      ACCESS:    1036138  HIT:     385626  MISS:     650512
LLC RFO       ACCESS:      47355  HIT:      20591  MISS:      26764
LLC PREFETCH  ACCESS:     834505  HIT:     699563  MISS:     134942
LLC WRITEBACK ACCESS:     254492  HIT:     252641  MISS:       1851
LLC TRANSLATION ACCESS:        678  HIT:        408  MISS:        270
LLC PREFETCH  REQUESTED:          0  ISSUED:          0  USEFUL:          0  USELESS:          0
LLC AVERAGE MISS LATENCY: 242.725 cycles

DRAM Statistics
 CHANNEL 0
 RQ ROW_BUFFER_HIT:      64519  ROW_BUFFER_MISS:     747410
 DBUS AVG_CONGESTED_CYCLE:    3.96301
 WQ ROW_BUFFER_HIT:      18054  ROW_BUFFER_MISS:     196324  FULL:          0


CPU 0 Branch Prediction Accuracy: 91.1986% MPKI: 12.9566 Average ROB Occupancy at Mispredict: 52.1675
Branch type MPKI
BRANCH_DIRECT_JUMP: 0
BRANCH_INDIRECT: 0
BRANCH_CONDITIONAL: 12.9566
BRANCH_DIRECT_CALL: 0
BRANCH_INDIRECT_CALL: 0
BRANCH_RETURN: 0

